  85
       -117.33703855
 C         -4.2271875372        1.0760729861        1.3060118584
 C         -5.3078216006        0.4439519741        0.5741984116
 C         -5.1759165907       -0.9917072400        0.7352365881
 C         -4.0153385551       -1.2465132714        1.5672092825
 C         -3.4286187173        0.0315341785        1.9199572068
 H         -4.0318992798        2.1483235361        1.3666522442
 H         -6.0965515106        0.9591493703        0.0223544241
 H         -5.8541921756       -1.7463439989        0.3325731993
 H         -3.6700812780       -2.2263273587        1.9022837707
 H         -2.5430016768        0.1865909325        2.5381811594
 Fe        -3.4500585616       -0.1888065070       -0.1572226243
 C         -3.0621483395       -1.3857570017       -1.8189272057
 C         -1.8347756130       -1.1955535873       -1.0428698331
 C         -1.5789219405        0.2385597488       -1.0071510883
 C         -2.6294213210        0.9121576060       -1.7441580803
 C         -3.5438969127       -0.0898248007       -2.2491912389
 H         -3.5419366991       -2.3398778577       -2.0404507749
 H         -2.6907875604        1.9896799289       -1.9096311511
 H         -4.4269609047        0.0976035525       -2.8631163310
 C         -1.1000361973       -2.2934074938       -0.2896210691
 H         -1.4035103183       -2.1974533108        0.7598940696
 P         -0.1393616558        1.1038788620       -0.3308340545
 C         -1.5450201084       -3.6583001756       -0.8021090354
 H         -1.4567959723       -3.7128614986       -1.8868542442
 H         -0.9701466381       -4.4820340263       -0.3879634038
 H         -2.5934437566       -3.8475320947       -0.5634060419
 P          0.7803743940       -2.1209029929       -0.1394107170
 Rh         1.8502203305       -0.0078829019        0.2288609478
 C          1.2369495738       -3.0783172834        1.4431600334
 C          1.6018305143       -2.6449127617       -1.7628969942
 C          3.0683743034       -2.2188110615       -1.7992424697
 H          3.1718628015       -1.1357528271       -1.7519949601
 H          3.6324657483       -2.6600308109       -0.9803200207
 H          3.5377522006       -2.5430928945       -2.7287848396
 C          0.8361300104       -1.9168054094       -2.8652992739
 H          0.8770681474       -0.8367903590       -2.7153787033
 H          1.2612363707       -2.1364612159       -3.8461878500
 H         -0.2129415710       -2.2101633818       -2.8848163869
 C          1.5188645997       -4.1577194396       -1.9435112811
 H          2.0356187849       -4.6803569363       -1.1401400209
 H          0.4916232949       -4.5104880308       -1.9750069703
 H          1.9888107225       -4.4566751556       -2.8813564208
 C          0.5288121062       -4.4288572442        1.5129726901
 H         -0.5514667358       -4.3068780422        1.5807056267
 H          0.7684777721       -5.0513980151        0.6525074792
 H          0.8398119492       -4.9761222940        2.4036775844
 C          0.7701301271       -2.2116437951        2.6138002580
 H         -0.3107038325       -2.0696949522        2.5980248429
 H          1.0277747609       -2.6764379090        3.5668420050
 H          1.2313076438       -1.2264851744        2.5908790156
 C          2.7403047800       -3.3100360275        1.5134434927
 H          3.0905398911       -3.9121337418        0.6767500814
 H          3.2822425026       -2.3706852045        1.5196042723
 H          3.0053683087       -3.8401109980        2.4291347641
 C         -0.7204963886        1.9080506985        1.1826496649
 C         -0.2029722137        1.7199733941        2.4413138233
 O         -1.7514112449        2.8028402810        1.2367172010
 C         -0.9230865168        2.5424529647        3.3064130375
 H          0.6193330069        1.0753720857        2.7030407034
 C         -1.8559249774        3.1957816399        2.5399057606
 H         -0.7697617584        2.6532564683        4.3674101801
 H         -2.5758403608        3.9226075467        2.8977395213
 C          0.2427235490        2.3943356008       -1.5409556452
 C          0.1462516364        2.2348222484       -2.9012881704
 O          0.6732677687        3.6589293828       -1.2528938961
 C          0.5223553620        3.4465973161       -3.4810407303
 H         -0.1737252271        1.3430637402       -3.4155472906
 C          0.8355630885        4.2953563524       -2.4479632834
 H          0.5537317099        3.6750521944       -4.5338839898
 H          1.1626837275        5.3242335456       -2.5446192436
 C          4.7623757904        2.0737778998        1.0372414942
 C          3.3641604936        1.7969322353        1.7432815278
 C          4.4085847373        1.0892547776       -0.1612978642
 H          5.6190455474        1.7417896524        1.6305122114
 H          4.8856600373        3.1129601506        0.7192283191
 C          2.4151730188        2.1202659414        0.5561394919
 C          3.4080594727        0.2421643621        1.7997963526
 H          3.1735522485        2.3271618175        2.6925282703
 C          3.0417540288        1.6875449476       -0.5901078050
 C          4.0404352493       -0.1803188185        0.6524425240
 H          5.1715713340        0.9745648787       -0.9507126364
 H          1.5458820091        2.7818208584        0.5959442727
 H          3.2101564543       -0.3645933412        2.6862311552
 H          2.7258540781        1.8995272192       -1.6142202703
 H          4.4542949828       -1.1722880798        0.4639878611
