85
 energy: -117.400442870626 gnorm: 0.000783268851 xtb: 6.6.1 (8d0f1dd)
C           -3.22001656749387       -0.76093713521169       -1.41361791177248
C           -3.91590508921179       -1.42399935160674       -0.37662048176706
C           -4.91144971427324       -0.55093829390325        0.10734079447480
C           -4.82219478320738        0.65665798791867       -0.61905125923596
C           -3.78520543277125        0.51981075188883       -1.56695021472329
H           -2.44532446634972       -1.17715220926843       -2.02858594690489
H           -3.74355507685457       -2.42700176720439       -0.03985410548206
H           -5.61636775911473       -0.76747793663139        0.88741708865193
H           -5.45569002591623        1.51520554399053       -0.49625239287001
H           -3.51657379029611        1.23801453290016       -2.31861510436411
Fe          -3.05674235487104        0.27806578145237        0.37564144182369
C           -2.44231831002825        1.99479200719992        1.30785489610645
C           -1.34518505070064        1.30443019697458        0.73263213290578
C           -1.29572767470227        0.00982715370177        1.34425247662277
C           -2.38007721709921       -0.08662261756347        2.26136175651023
C           -3.07237149812010        1.13772352308599        2.23666228163309
H           -2.76811970743237        2.99364683005140        1.09117431831771
H           -2.61767412605685       -0.93672080683399        2.86979670586774
H           -3.93766481152860        1.38025436199168        2.82170821529456
C           -0.54729738101321        1.70523932337679       -0.47108385218328
H           -0.62323246465119        0.85784966690978       -1.16880886309891
P            0.03648225661113       -1.12995499144254        1.03467144021214
C           -1.26177160018539        2.88881512076741       -1.12665559316375
H           -0.92905506718479        3.06580561641593       -2.14225992062259
H           -2.31945613880480        2.63488747011074       -1.16915714066477
H           -1.16209652301484        3.80363649605950       -0.55333689372689
P            1.32864054522358        1.70781929745439       -0.14402579251616
Rh           2.07145146173219       -0.48095498327254        0.29194096483757
C            2.03924017485180        2.59625946804845       -1.67888716792479
C            1.58193873108286        2.74081960205080        1.43584829942454
C            0.62767386389308        3.92413520900794        1.56192447234643
H           -0.40290706540093        3.59036510429505        1.62610720004703
H            0.85629181806262        4.46620843997627        2.47869903647556
H            0.73645087347432        4.61797734489294        0.73416163830853
C            3.02373952692838        3.23959210036734        1.52712156366606
H            3.18964282683101        3.67846751452174        2.51003737076013
H            3.72611809964696        2.41697754481992        1.41003464514517
H            3.23326456017065        4.00872491744544        0.78996015178309
C            1.35608712594160        1.77970449344959        2.60959743673020
H            1.59581001900063        2.28113419506585        3.54571038900478
H            0.32165572900169        1.44972304507432        2.66361369603907
H            2.00712241615560        0.90118929494668        2.51817970155279
C            1.50013046137850        1.78713458122651       -2.86685356919592
H            0.46515326071986        2.01714928263556       -3.09556643465768
H            2.08886359648022        2.00006254023294       -3.75735152378162
H            1.57555950216952        0.71704584326710       -2.65539543034051
C            3.56804397032845        2.49494739322616       -1.73397296731843
H            4.04661442016476        2.92277166220226       -0.86042064117092
H            3.89658228828339        1.47059941659256       -1.85222489576870
H            3.91855693203772        3.05261368375838       -2.60176975269580
C            1.70257161528349        4.08304535413830       -1.80280288851607
H            1.95563908860039        4.41411954270362       -2.80933852251674
H            0.65939464827505        4.30970574234390       -1.63458087903398
H            2.29871702661729        4.67023128447155       -1.10885093289349
C           -0.47236769982516       -2.19241322728178       -0.32682997877402
C           -1.21366581267491       -3.32097537162138       -0.53135832523294
O            0.14218191656399       -1.82369574590491       -1.48265219281228
C           -1.05717391036664       -3.64757455162526       -1.89777249849912
H           -1.78623736901368       -3.85234061323159        0.19973653407981
C           -0.22566281470248       -2.70490288163866       -2.42228946825003
H           -1.50367885324491       -4.47205710511283       -2.41377386388655
H            0.15743362180209       -2.56681414862304       -3.41451379518132
C           -0.07997962129758       -2.25217643819448        2.43438420789238
C           -0.21475059784321       -2.04695344697719        3.78310687272996
O            0.16317998801582       -3.56295181939493        2.19204467000196
C           -0.07829659108683       -3.31494868821787        4.38920082013809
H           -0.39592253007655       -1.11153620989282        4.27211136190560
C            0.15031376781079       -4.19373212151578        3.37381786287738
H           -0.14146266538276       -3.53945075283622        5.43348868003946
H            0.30544155765995       -5.25456461578198        3.36785334627223
C            5.10159390521418       -2.45246722654036        0.23355500227862
C            3.85190914422422       -2.42124374065392       -0.66266185531889
C            4.58375512230765       -1.33389871984626        1.15350999585165
H            6.01613132801659       -2.18426036689449       -0.29440519445691
H            5.23651546695561       -3.40323064908980        0.74797190864455
C            2.75266207613322       -2.55091933819429        0.38630251666943
C            3.78473165203739       -0.93352996321413       -0.99375661318635
H            3.80882628360865       -3.10910507497496       -1.50188429594232
C            3.20454470617256       -1.88232097745258        1.50415026124992
C            4.23859857420752       -0.26024245167702        0.12079069155615
H            5.21200815779729       -1.02599738878763        1.98414833326105
H            1.99027571270432       -3.31652889590110        0.35306460434379
H            3.71828923369924       -0.58163425991986       -2.01369732401606
H            2.84871270764663       -1.99067769077093        2.52079800796979
H            4.65113569029449        0.73532847175441        0.16492571215005
