  91
       -119.82671911
 C         -5.1988938263        0.3898678944       -0.4617780008
 C         -4.8697446638        1.7988720470       -0.5446959448
 C         -3.7994999037        1.9505016562       -1.5097646032
 C         -3.4624927088        0.6341741665       -2.0177721484
 C         -4.3254207703       -0.3303480206       -1.3656991414
 H         -5.9964323823       -0.0473853713        0.1417558028
 H         -5.3765080124        2.6079211149       -0.0151580515
 H         -3.3924315320        2.8993880778       -1.8625416077
 H         -2.7676336940        0.4211586426       -2.8323463447
 H         -4.3564279677       -1.4032396989       -1.5634209340
 Fe        -3.1732646753        0.7088700460        0.0702259078
 C         -2.8628641183        1.4069647670        2.0235388092
 C         -1.5585572639        1.1332083586        1.4143836440
 C         -1.5585813200       -0.2752662682        1.0341061459
 C         -2.8331492513       -0.8561492476        1.4133747222
 C         -3.6351837266        0.1801176780        2.0336823133
 H         -3.1452534249        2.3385012497        2.5167113724
 H         -3.1040337858       -1.9086187730        1.3110621851
 H         -4.6228685067        0.0470785638        2.4797261429
 C         -0.3107206883        1.9325694595        1.7494592265
 H         -0.6288041547        2.9690788554        1.9117959723
 P         -0.1034063378       -1.2239449354        0.4762860122
 C          0.2671101445        1.4011783294        3.0537845420
 H          0.8293543993        0.4841043173        2.8829491366
 H          0.9129318052        2.1185840699        3.5583903028
 H         -0.5315038295        1.1588121492        3.7579453976
 P          0.9467099446        2.0657955514        0.3451833323
 Rh         1.5490554900       -0.0025860875       -0.6605900859
 C          0.0828290304        3.0418107237       -1.0429815235
 C          2.5246091500        2.8764416088        1.0415186385
 C          2.0951621862        4.1234663315        1.8104844330
 H          2.9582227853        4.6141826902        2.2630379997
 H          1.6136574381        4.8438922623        1.1493204873
 H          1.3942105875        3.8894807004        2.6093234748
 C          3.5299196598        3.2808302773       -0.0388297586
 H          3.7973366819        2.4407274319       -0.6710845313
 H          4.4517025344        3.6414792072        0.4191618379
 H          3.1653203213        4.0893398593       -0.6649474221
 C          3.2142495223        1.8628898399        1.9618947963
 H          2.6661964089        1.6901544093        2.8828930514
 H          3.3397836187        0.9014279525        1.4657012788
 H          4.2042431197        2.2178387650        2.2522688124
 C         -0.4838275896        2.0007099555       -2.0027871658
 H         -1.0473630780        1.2433206557       -1.4583169002
 H         -1.1438530530        2.4641921083       -2.7377119122
 H          0.3113004096        1.4973924428       -2.5540324715
 C          1.0208794485        3.9718115449       -1.8039081623
 H          1.8745312964        3.4331919294       -2.2096234303
 H          0.5006780360        4.4309235758       -2.6453307517
 H          1.3712676713        4.7830970717       -1.1677950188
 C         -1.0411287630        3.8734303851       -0.4281748864
 H         -1.7908772501        3.2422763032        0.0467736937
 H         -0.6534429310        4.5684347251        0.3168076560
 H         -1.5479713930        4.4627335884       -1.1935561780
 C          0.7583018657       -1.8063106449        1.9522535904
 C         -0.0027774039       -2.1447145038        3.0485494889
 C          2.1299951973       -1.9243444128        2.0007100094
 C          0.6081210888       -2.5970397004        4.2038254226
 H         -1.0749669893       -2.0466238963        2.9983687182
 C          2.7443668997       -2.3745769743        3.1537551509
 H          2.7222283491       -1.6675326866        1.1395285012
 C          1.9824730179       -2.7101156184        4.2543877233
 H          0.0118722407       -2.8603261753        5.0617949340
 H          3.8172643729       -2.4667541646        3.1918433672
 H          2.4609138777       -3.0635230787        5.1531408048
 C         -0.7480270537       -2.6474179889       -0.4162072145
 C         -0.4297027901       -3.9271192857       -0.0207807265
 C         -1.5811569275       -2.4372647330       -1.4901746649
 C         -0.9376873417       -5.0082192090       -0.7170806297
 H          0.2116335007       -4.0761835613        0.8324339508
 C         -2.0916338151       -3.5158620198       -2.1888550400
 H         -1.8336885233       -1.4281045000       -1.7701226681
 C         -1.7664131236       -4.8002765307       -1.8015992236
 H         -0.6882458460       -6.0111835304       -0.4123002645
 H         -2.7420029714       -3.3534803885       -3.0324286912
 H         -2.1629619350       -5.6423893008       -2.3448378776
 C          3.7621454017       -1.4955299004       -3.1623609651
 C          2.5364187239       -0.4829838189       -3.2258043150
 C          3.6498120577       -1.6103133792       -1.5797422800
 H          4.7048878639       -1.0535398949       -3.4970062207
 H          3.5684392202       -2.4402905826       -3.6781231141
 C          1.4768051038       -1.3135278311       -2.4488891288
 C          3.0294877805        0.5780114206       -2.2007850849
 H          0.4298305093       -1.4459249438       -2.7295986534
 C          2.1484151704       -1.9915569289       -1.4583672036
 C          3.6998866270       -0.1005838654       -1.2080117628
 H          2.2474887682       -0.1160344126       -4.2261020414
 H          4.3753130131       -2.2737088830       -1.0776605805
 H          3.0147033309        1.6557593597       -2.3671576986
 H          1.7359595289       -2.7765263572       -0.8218950512
 H          4.3235796724        0.3361557801       -0.4250921114
