91
 energy: -119.871104045631 gnorm: 0.000348788065 xtb: 6.6.1 (8d0f1dd)
C           -3.36836274549580       -0.86291977308110       -1.43120222952964
C           -4.25081422007746       -1.27143054129755       -0.40612047328902
C           -5.00378286626729       -0.14843332734836       -0.00761429294287
C           -4.57827667814246        0.95645153448225       -0.77707932057524
C           -3.57371677258581        0.50866583859819       -1.66188074206684
H           -2.70072936462364       -1.48913071597694       -1.98851729574468
H           -4.37020785510943       -2.26867682088525       -0.03065905257193
H           -5.77409437037080       -0.13656510431425        0.73951067785386
H           -4.98072624216276        1.95090910663803       -0.72396360646795
H           -3.09349664784208        1.08799038680590       -2.42732635225150
Fe          -3.02171138591346        0.21404978062288        0.32808877077739
C           -2.39849783649983        1.82853777954343        1.39261240860914
C           -1.30184449755318        1.19703676660664        0.75091948095627
C           -1.22745665669140       -0.13845869343080        1.25902121770772
C           -2.30236502947235       -0.32109853636088        2.17318659454986
C           -3.00987187252260        0.89173008369779        2.25462881141979
H           -2.73362330822711        2.83946822063532        1.26262511333871
H           -2.51375751649603       -1.21285904231748        2.73182736161237
H           -3.86995659359693        1.07632311505079        2.86726797864867
C           -0.53738004810024        1.69108240611086       -0.44027303719165
H           -0.60431504993077        0.87639138664414       -1.17828558569264
P            0.11812702781297       -1.24398007054192        0.87220554736279
C           -1.28790219990949        2.89118709774028       -1.02114469026909
H           -0.99782804240073        3.10141518458289       -2.04405154265162
H           -2.34511547313860        2.63536714236158       -1.02920334975077
H           -1.16783208428724        3.78779177272938       -0.42442256948149
P            1.33955173154836        1.73675501356737       -0.14216402952715
Rh           2.15456577489589       -0.43547232814830        0.25833815730000
C            2.00957443312235        2.68621141497917       -1.65902767049930
C            1.58532470673746        2.74432897894492        1.45609438024206
C            0.59986975257141        3.89610297854131        1.62872934090265
H           -0.41935798846668        3.53095402426433        1.70171298252229
H            0.82903710529741        4.41973706977872        2.55621102849000
H            0.67434024406831        4.61524320030927        0.81884567757876
C            3.01123274505435        3.28543092969041        1.55327344320447
H            3.16938123906145        3.69955669504024        2.54827309281834
H            3.19039527217901        4.08363371355635        0.83922031768753
H            3.74056959288772        2.49227301550691        1.40703651100793
C            1.39009116012453        1.74184918376854        2.59934337593094
H            1.64062126627275        2.20836562575638        3.55064977614950
H            0.35591787341216        1.41021960440333        2.64969540549612
H            2.04476528712234        0.86974641602711        2.46368407546346
C            1.48232308408810        1.89641238203369       -2.86402383866873
H            0.42811917904805        2.07194449916417       -3.05001874376904
H            2.02802347412428        2.18011766576679       -3.76197028524485
H            1.62900863744482        0.82528487277854       -2.70201503558863
C            3.53987295402750        2.62875134284803       -1.72412121240797
H            4.01032379663422        3.08680982743556       -0.86162909026154
H            3.89884254480703        1.61309423121857       -1.82405742552468
H            3.86907993689632        3.18013445331082       -2.60405458926994
C            1.63305180681376        4.16561062114927       -1.74583579008093
H            1.91350376569428        4.53604799235184       -2.73132137931948
H            0.57781363494360        4.35655092645739       -1.61237939866988
H            2.18517188313409        4.74731578470392       -1.01211240325234
C           -0.57135012251402       -2.32032449914810       -0.41833209837995
C           -1.68312793403454       -3.11253542628976       -0.15581215959436
C            0.03718593908285       -2.36311354569508       -1.66604694484586
C           -2.15552010845770       -3.97338781240083       -1.12883255499845
H           -2.16330914496757       -3.04551366474237        0.80866432130615
C           -0.45304146677231       -3.20803695853342       -2.64635038758369
H            0.90234738788060       -1.72939681050947       -1.85423545970613
C           -1.54059663186472       -4.02233148934605       -2.37165711612370
H           -3.00591316107216       -4.60560830239980       -0.92525599897063
H            0.01410995630241       -3.24049523459050       -3.61899209689313
H           -1.91366949707510       -4.69377802988634       -3.12937096024772
C            0.14943595320522       -2.33408566989939        2.33575653008333
C            0.24798765987717       -3.71818668541761        2.22981823035771
C            0.17485437110312       -1.74879509713046        3.60007738166198
C            0.34005233946722       -4.50086099588047        3.36717359196908
H            0.23462590069892       -4.19196994531121        1.25847836192796
C            0.26688119467965       -2.53348200977869        4.73446960520084
H            0.11349708871514       -0.67417571387731        3.69387836912213
C            0.34810231004435       -3.91217597646740        4.62064102827623
H            0.40550916451482       -5.57412879317096        3.27291440013898
H            0.27618525798918       -2.06925712999905        5.70891439180168
H            0.41833514535689       -4.52514933639547        5.50566377545142
C            5.27063174170983       -2.27534116202888        0.24277550782869
C            4.05238934304464       -2.27222173616161       -0.69605739881776
C            4.67433101673652       -1.20381571615196        1.17128043420570
H            6.19085528507646       -1.95595881489443       -0.24547514464404
H            5.42728543339249       -3.23285081034163        0.73794551992276
C            2.92240977250955       -2.47280990466959        0.30828906265357
C            3.93410831028737       -0.78117543201492       -0.99132310248716
H            2.19970196332459       -3.27119382080448        0.22747691035054
C            3.30930539833635       -1.81921348572998        1.45986498895651
C            4.32015760534296       -0.11816923195325        0.15346091271790
H            4.06793285066640       -2.93889139441889       -1.55318305133272
H            5.26066160696215       -0.89190824023619        2.03061660415087
H            3.88609789434017       -0.40710378104040       -2.00453293548806
H            2.92447394612613       -1.97629731888831        2.45931117102798
H            4.69187964594450        0.89153490380123        0.22962979606880
