  99
       -130.48970708
 P          1.3833915720        1.0643922294        0.3845076716
 C          2.9705839073        1.5306904361       -0.3412565369
 C          4.0029069217        0.6319794525       -0.4860831904
 C          5.1897714318        1.0272708442       -1.0733381809
 C          5.3406796952        2.3261872502       -1.5141176106
 C          4.3077545364        3.2291715937       -1.3666542665
 C          3.1216125055        2.8282327997       -0.7791031938
 C          0.7460036968        2.5470626123        1.1641655077
 C         -0.2152313744        3.3156680449        0.5508812165
 C         -0.6758212791        4.4621496690        1.1710302032
 C         -0.1664858070        4.8323977798        2.3995376629
 C          0.8076439327        4.0647544505        3.0057781339
 C          1.2686565652        2.9194357883        2.3815996197
 P         -1.7558860661       -0.2660089127        0.5734032433
 C         -1.0106760272       -0.5517116120        2.2723083659
 C         -1.1772412179        0.6288550742        3.2124271411
 C          1.5514110100       -0.2552840810        1.6354666696
 C          0.4381056079       -0.9993162333        2.2244266700
 C          1.0154054126       -1.9788902351        3.1437157948
 C          2.4545574030       -1.8201489685        3.1402756106
 C          2.7845278724       -0.7508578138        2.2205971128
 H          3.8813761825       -0.3783709239       -0.1403037623
 H          2.3099364352        3.5269565154       -0.6558848393
 H         -0.5901983910        3.0286413377       -0.4161979072
 H          2.0318704860        2.3095674533        2.8389590403
 H         -1.5957000466       -1.3908426209        2.6702278327
 H         -0.6970227692        1.5164720552        2.8074314557
 H         -0.7146822397        0.4256642747        4.1802692552
 H         -2.2224810380        0.8748813753        3.3968866189
 Rh        -0.2049353722        0.1981679339       -1.1314957573
 H          3.7821277494       -0.3445957977        2.0479803459
 Fe         1.7800708722       -2.2768081257        1.2023528580
 C          1.3250778854       -3.0882765195       -0.6830780627
 C          1.3712688907       -4.1280391922        0.3279491353
 C          2.7028983318       -4.1276162192        0.9051663946
 C          3.4742919996       -3.0870160402        0.2499334178
 C          2.6198370701       -2.4459077267       -0.7310588193
 H          0.5133041154       -2.8985924459       -1.3831471377
 H          3.0726182685       -4.8174501684        1.6665183207
 H          4.5295079774       -2.8679872079        0.4247089752
 H          2.9247846265       -1.7045114946       -1.4708165851
 H          6.2662769809        2.6362044297       -1.9709714040
 H         -0.5234945007        5.7273197179        2.8822653336
 H          3.1618580698       -2.3700009632        3.7641243508
 H          0.4477346673       -2.6368296696        3.8032167744
 H          0.5708849919       -4.8308634630        0.5673169542
 H         -1.4225312852        5.0725922534        0.6910136012
 H          1.2112358535        4.3580479845        3.9607999046
 H          4.4247143924        4.2447801318       -1.7072139711
 H          5.9967198573        0.3219609063       -1.1857191622
 C         -2.9176632942        1.1879200241        0.7143046241
 C         -3.2965759010        1.8523205515       -0.6190673149
 C         -4.1933572257        0.8384664938        1.4978183382
 H         -2.3515521168        1.9263944704        1.2941410943
 C         -4.1285691436        3.1282441150       -0.3780233097
 H         -3.8902992849        1.1512697635       -1.2129658033
 H         -2.4033043205        2.0681499792       -1.2167315402
 C         -5.0304177301        2.1043254312        1.7704382668
 H         -4.7923605363        0.1372703188        0.9065568751
 H         -3.9580432051        0.3010188756        2.4244915686
 C         -5.3903743511        2.8173311712        0.4516298988
 H         -4.3954932170        3.6040791479       -1.3314336908
 H         -3.5175472041        3.8652021704        0.1556749533
 H         -5.9353952772        1.8579712463        2.3421828278
 H         -4.4571230108        2.7876559853        2.4082174437
 H         -5.9598308488        3.7355333765        0.6503630378
 H         -6.0618663089        2.1786912656       -0.1346544588
 C         -2.7806882812       -1.8113946156        0.3407713649
 C         -3.6865334253       -1.8382514750       -0.8997972188
 C         -1.9219599992       -3.0807887607        0.3838429472
 H         -3.4304430146       -1.8205052604        1.2253682486
 C         -4.5917693487       -3.0869288660       -0.8903315670
 H         -3.0594237700       -1.8654618559       -1.7951684663
 H         -4.2808882228       -0.9213174477       -0.9754596561
 C         -2.8038613973       -4.3451063386        0.4105834654
 H         -1.2988156725       -3.1017131532       -0.5139905147
 H         -1.2253806798       -3.0579637734        1.2312994583
 C         -3.7519345683       -4.3770452971       -0.8044708352
 H         -5.2419112992       -3.1028328779       -1.7756503296
 H         -5.2699606981       -3.0371115641       -0.0301424467
 H         -2.1848083393       -5.2517136572        0.4475172343
 H         -3.3950482082       -4.3558884846        1.3339434423
 H         -4.4023266434       -5.2615695931       -0.7659771268
 H         -3.1620279961       -4.4879115174       -1.7222423063
 C         -0.1525726295        0.4199457974       -4.7729973028
 C          0.5368042547       -0.5443232669       -3.7109529904
 C         -0.8762652326        1.2504231859       -3.6241513356
 H         -0.8509209482       -0.0979309108       -5.4364808348
 H          0.5652260812        1.0127890637       -5.3469474255
 C          1.2075869217        0.5247090743       -2.8014917511
 C         -0.7264698346       -1.0007347964       -2.9239426544
 H          1.1901748971       -1.3387983372       -4.1116351440
 C          0.3595342974        1.6057675017       -2.7483737744
 C         -1.5747673980        0.0805792839       -2.8705332910
 H         -1.5163923937        2.0897717786       -3.9470340437
 H          2.2257000616        0.4870653475       -2.4097168648
 H         -0.9814410159       -2.0293883244       -2.6608685599
 H          0.5877205514        2.5820563237       -2.3146006992
 H         -2.6213061144        0.0639582914       -2.5645996662
