99
 energy: -130.530856204077 gnorm: 0.000412250727 xtb: 6.6.1 (8d0f1dd)
P            0.08190412344981        0.95185725232398       -0.69289273912770
C            1.10010944690899        0.44849846896138       -2.10942614394722
C            0.47663835894054       -0.07818474589255       -3.23366405782002
C            1.22956145288967       -0.43322589308588       -4.33936115052976
C            2.60335567204552       -0.24906774698603       -4.32384701927832
C            3.22812452557845        0.26498201784409       -3.19675529301216
C            2.48141138284209        0.60216200402904       -2.08352192240736
C            0.77914488450364        2.57634874384157       -0.25000313076703
C            0.66788553047251        3.04035201840492        1.05830340190700
C            1.11166549471195        4.30716625890245        1.39053365494702
C            1.65664721688712        5.13029059148878        0.41822967068232
C            1.75022170984877        4.68393148017725       -0.89003202913894
C            1.30683984132830        3.41755026702741       -1.22608779450956
P           -2.56749492075420       -0.84930373654396        0.04557053401025
C           -1.09733664425752       -1.98543223697263        0.28174313446209
C           -1.31156207441052       -3.40342485037532        0.80303181078365
C            0.65268690231602       -0.10526440884110        0.63362299373436
C           -0.03470080339386       -1.28445145882500        1.07027790266666
C            0.63306415001987       -1.76303592509745        2.22513486162098
C            1.74033258815539       -0.92254506846995        2.47703156667842
C            1.76613818461596        0.08955781693655        1.50002539296951
H           -0.60514753146848       -0.20210765971905       -3.22857753471140
H            2.95419772858536        0.98785429570364       -1.19289031395976
H            0.24047906332995        2.40375074489512        1.81919161200962
H            1.38154948286501        3.07594778604551       -2.24890899751186
H           -0.70508657765947       -2.06195282729891       -0.74472752002423
H           -0.33389355035689       -3.86793596555304        0.91528379390419
H           -1.88575418385531       -3.99985817901714        0.10165280655737
H           -1.80860538232904       -3.41973297373354        1.76613944099898
Rh          -2.12755069386153        1.02060281335181       -1.20652108685763
H            2.47800595849415        0.89108439427540        1.44387027882489
Fe           1.87061553022710       -1.76277112416253        0.61615610598812
C            2.62790993532118       -3.66347517680309        0.63666245187225
C            3.68038182652752       -2.72137608437271        0.63747199133452
C            3.57573078684970       -1.95132353610116       -0.53854948777161
C            2.46489921643759       -2.42494672183755       -1.27238708182000
C            1.88228397866910       -3.48110918332777       -0.54789603355656
H            2.45268746863563       -4.41043406996383        1.38833179046521
H            4.25355855893135       -1.17803951149552       -0.84266989416386
H            2.14900829161658       -2.08851928435141       -2.23993485275747
H            1.05290950503151       -4.07875786265676       -0.87562707069457
H            3.19005225761004       -0.51092803074112       -5.19066672660126
H            2.00391335154481        6.11811372891682        0.67838590705347
H            2.44227289824089       -1.03758652359508        3.27939238670975
H            0.36487130795226       -2.61701942944616        2.81670482848134
H            4.43544099786111       -2.62091308349624        1.39377722181470
H            1.03072896013799        4.65405223124608        2.40954687042488
H            2.16801380660865        5.32459560575065       -1.65166854501263
H            4.29883825848675        0.39935979242415       -3.19109742589336
H            0.74945668746361       -0.84493600445263       -5.21423779599237
C           -3.16304568207335       -0.28317001372943        1.71870185234360
C           -2.97223880311640       -1.24304863983530        2.89173828517578
C           -2.48116023736494        1.04940739111901        2.04899699369670
H           -4.23821721924994       -0.09716344200974        1.58416875638351
C           -3.58207483814602       -0.63855999967224        4.15685178521501
H           -1.90615986750859       -1.40270875097524        3.05736242190563
H           -3.44488018163683       -2.20465303004619        2.69128943056408
C           -3.07891859691581        1.66348126669260        3.31017123138145
H           -1.41621472927285        0.86507791782196        2.21102325816600
H           -2.58507101538302        1.74990159274001        1.20363079311883
C           -2.92909273741277        0.70033526465532        4.48412767016888
H           -3.44860853158496       -1.33010009689625        4.99011025490537
H           -4.65541901394521       -0.49504458775918        4.01305349454447
H           -2.57941121196708        2.60741401822609        3.53503770763699
H           -4.13777531097216        1.87690116574734        3.14741968586019
H           -3.38627349827227        1.12804616609754        5.37694708516446
H           -1.86822990912539        0.54475486943122        4.69301652393465
C           -3.96016274519636       -1.86840320142959       -0.65602153207045
C           -3.48563931863152       -2.51752206904036       -1.95823416259035
C           -4.66873146354498       -2.88591777164455        0.23612061327639
H           -4.70954211756302       -1.10518155515550       -0.91516172008518
C           -4.67155177593969       -3.11332421083160       -2.71182877070855
H           -2.77344505418465       -3.31440222546745       -1.74069495581535
H           -2.96768239904565       -1.77351986411984       -2.57589426797637
C           -5.84917930963695       -3.48854570370669       -0.52846338066374
H           -3.99313781625056       -3.68734648964565        0.52931350979931
H           -5.04200985590639       -2.40247594886038        1.14016368043660
C           -5.38715497288111       -4.13431950668792       -1.83154316117701
H           -4.32712048528551       -3.58930628259283       -3.63135931728344
H           -5.37221642693730       -2.32112533553085       -2.98729412044268
H           -6.34348159290814       -4.23230185573552        0.09815046131003
H           -6.57729442432008       -2.70512590184659       -0.75135655649174
H           -6.24602032260138       -4.54469378883686       -2.36366424435385
H           -4.70859244199230       -4.96043678566049       -1.60819279770818
C           -4.11098674764624        3.39617260797769       -3.05243315011205
C           -3.28038678925773        2.17063563393319       -3.47020640393584
C           -3.77793082193086        3.22920620665305       -1.55976401306023
H           -5.17331388148026        3.28944757634892       -3.26994995795432
H           -3.73916731169081        4.32988455619932       -3.47257012504659
C           -1.94675762449252        2.49971975507495       -2.80051956721400
C           -3.85826014114285        1.11464863275283       -2.52925978143886
H           -3.24597637060107        1.91546294156834       -4.52536285504280
C           -2.25418105885106        3.15251361217969       -1.62853266047882
C           -4.16521909713179        1.76439253602208       -1.35341050356973
H           -4.19763921255978        3.94701730470266       -0.86110435592073
H           -1.00522613314093        2.52202046758143       -3.33100504935588
H           -4.25783473070485        0.17592635687332       -2.88522008068889
H           -1.59963896513322        3.77770225164476       -1.03604702034168
H           -4.85558992806629        1.44132052634274       -0.58618724650596
