  98
       -145.21832653
 P         -1.4907235156       -1.6767021062       -0.1767280720
 P         -0.0607022705        1.0893126532        0.9630364343
 N          0.2404196130       -1.8138115329       -0.4500785130
 N          0.8198465082       -0.1794335213        1.8119029913
 C          2.1873729893       -0.4347719031       -0.8185730748
 C          2.7587475018       -0.9235694877        0.4540075644
 C          2.9052244406        0.4699844221       -1.6664416476
 C          3.9864398462       -1.6722261678        0.4339983315
 C          0.9397382869       -0.9262527611       -1.2530559237
 C          2.0490441297       -0.8217599703        1.6735811228
 C          2.3704445800        0.8271333826       -2.9290468011
 C          4.4907800088       -2.2437310217        1.6285410177
 C          0.4300850908       -0.5361722370       -2.5102493258
 C          2.5666680710       -1.4465034479        2.8304180895
 C          1.1203011524        0.3010288206       -3.3258773775
 C          3.7481103044       -2.1130519290        2.8214650727
 C          4.1351578743        1.0392644801       -1.2768606581
 C          4.6968598273       -1.9138015161       -0.7616031893
 C          3.0934564268        1.7086822739       -3.7567750003
 C          5.6993885124       -2.9679709497        1.5941895440
 C          4.8113467905        1.8905316117       -2.1006347832
 C          5.8600388784       -2.6263979118       -0.7663547712
 C          4.2891243019        2.2250431226       -3.3506269077
 C          6.3714045760       -3.1492580362        0.4213654945
 C         -1.7425383704       -1.8929045927        1.5851836655
 C         -2.3947578877       -2.9026212837       -1.1159319870
 C         -0.9408646081        1.9473396517        2.2868864282
 C          1.1419098854        2.2788987677        0.3559146419
 C         -1.1527964496       -2.9733953894        2.2000092402
 C         -3.6868146663       -3.2294581328       -0.7736794801
 C         -2.0843125584        2.6832968295        2.0760900465
 C          2.1970412377        2.5595070463        1.1933117538
 C         -2.3737349924       -0.9222523511        2.3286181026
 C         -1.7744832503       -3.5101402785       -2.1818754787
 C         -0.4087495916        1.8504828180        3.5525479561
 C          1.0142131113        2.9427166788       -0.8419774876
 C         -1.1865754384       -3.0798880067        3.5788438373
 C         -4.3739841116       -4.1695667451       -1.5198014685
 C         -2.7079005400        3.3128670982        3.1361109948
 C          3.1329518204        3.5132348385        0.8336577673
 C         -2.4045115138       -1.0247147612        3.7058690117
 C         -2.4590934922       -4.4516737649       -2.9288410879
 C         -1.0271429271        2.4806816652        4.6173869337
 C          1.9451760600        3.8969342935       -1.2053353158
 C         -1.8063544769       -2.1008627133        4.3287991186
 C         -3.7594158924       -4.7768886670       -2.5970789837
 C         -2.1793440469        3.2098274666        4.4066533734
 C          3.0020687740        4.1836204972       -0.3654303813
 Rh        -1.8397972980        0.6341528345       -0.5987414210
 H          0.6602337307       -2.0475833693        0.4430295577
 H          0.1479103069       -0.5811148021        2.4563272818
 H         -0.5176980310       -0.9363389977       -2.8223689349
 H          2.0034993534       -1.3648974756        3.7437077628
 H          0.7237347209        0.5721924302       -4.2888493178
 H          4.1241417973       -2.5662184478        3.7223492129
 H          4.5350578580        0.7979401251       -0.3079278415
 H          4.3037629278       -1.5347340824       -1.6875437735
 H          2.6874130136        1.9724025545       -4.7178713772
 H          6.0816325068       -3.3884863404        2.5082366934
 H          5.7515930868        2.3117372638       -1.7852221313
 H          6.3872954805       -2.7911258829       -1.6916411032
 H          4.8322622273        2.8980356904       -3.9934913915
 H          7.2926526556       -3.7083328852        0.4072690345
 H         -0.6484905426       -3.7161355514        1.6017492756
 H         -4.1492594945       -2.7531443848        0.0763177484
 H         -2.4898903167        2.7658504998        1.0849711165
 H          2.2854348152        2.0258924363        2.1262979855
 H         -2.8184731473       -0.0731995898        1.8386222829
 H         -0.7531106645       -3.2551256468       -2.4130430720
 H          0.4906334350        1.2768615171        3.7055903564
 H          0.1999727391        2.7023833290       -1.4997455376
 H         -0.7238662317       -3.9224532425        4.0657255910
 H         -5.3864178256       -4.4297724907       -1.2582153208
 H         -3.6046763041        3.8867430920        2.9698452574
 H          3.9594514105        3.7322776594        1.4891704863
 H         -2.8875164181       -0.2601712808        4.2918662754
 H         -1.9772343506       -4.9321227200       -3.7643136682
 H         -0.6096400289        2.4024637849        5.6076068335
 H          1.8477356736        4.4134198123       -2.1459534190
 H         -1.8308657449       -2.1816381755        5.4031816949
 H         -4.2943659241       -5.5109261568       -3.1770992394
 H         -2.6637343856        3.7028382711        5.2334786138
 H          3.7286863492        4.9271264604       -0.6488921910
 C         -4.4031908923        2.2883270618       -2.5794560645
 C         -3.3712798582        1.1098736479       -2.8552759518
 C         -3.8770356427        2.4675228711       -1.0891991934
 H         -5.4476958544        1.9683753805       -2.6327028132
 H         -4.2313420701        3.1678797964       -3.2063826827
 C         -2.0511923442        1.8274755422       -2.4423567521
 C         -3.7203957193        0.1853751182       -1.6517950595
 H         -3.3979457480        0.6521967090       -3.8595612596
 C         -2.3547485635        2.6423782334       -1.3758902358
 C         -4.0216147476        0.9998257952       -0.5862502355
 H         -4.3666378671        3.2519718199       -0.4864082785
 H         -1.1074750501        1.7930005066       -2.9912539541
 H         -3.8224084025       -0.9008425980       -1.6811400190
 H         -1.7097040966        3.4080959934       -0.9380718352
 H         -4.4309323176        0.6815086485        0.3757533971
