  111
       -200.29073669
 P         -0.7032846990        0.4904451052        0.2856886226
 C          0.3202029447        1.8481812972       -0.2706970068
 C         -0.0002294873        3.1826853475       -0.2730426080
 C          0.9729673418        4.1120932817       -0.5950066004
 C          2.2544788326        3.7012563736       -0.9193952377
 C          2.5654004627        2.3570141929       -0.9134425921
 C          1.5929577765        1.4430276640       -0.5819383938
 C         -2.4771435978        0.6361868975        0.0515766416
 C         -3.0777870947        1.4320320638       -0.8942130261
 C         -4.4317455571        1.3056367762       -1.1398058282
 C         -5.1855189555        0.3982451299       -0.4191768718
 C         -4.5855157995       -0.3766943998        0.5524278805
 C         -3.2308479794       -0.2489368522        0.7830691253
 P          1.2726498321       -1.9253023384        0.3349294708
 C          1.8589381034       -1.0621953592        1.8807889180
 C          2.6935638329       -2.0258450178        2.7019606041
 C         -0.3796813871        0.3269358888        2.0760633507
 C          0.7127952851       -0.4442837468        2.6553177799
 C          0.5727122344       -0.3638373790        4.1075244877
 C         -0.5840873747        0.4544837909        4.4085633075
 C         -1.1666833089        0.8846612948        3.1551054041
 H         -0.9807989057        3.5173676010        0.0200391953
 H          1.8490409564        0.3988244536       -0.5205817545
 H         -2.5057425465        2.1326850322       -1.4772459512
 H         -2.7740047848       -0.8595886653        1.5450868036
 H          2.4904586087       -0.2409733094        1.5253637808
 H          3.1565414031       -1.5297785191        3.5571898984
 H          3.4911612706       -2.4717514249        2.1044519734
 H          2.0737822246       -2.8368435464        3.0870484706
 Rh        -0.1671672673       -1.1307237942       -1.3616038629
 H         -2.0724507751        1.4821566694        3.0359477398
 C         -1.1687700200       -5.4653073766        1.8556548914
 C         -1.8097279762       -4.2883674882        1.5011832747
 C         -1.0381814758       -3.2347703309        1.0313989754
 C          0.3254845613       -3.3610847517        0.9011896121
 C          0.9471749744       -4.5334049768        1.2622387172
 C          0.2056464380       -5.6078281854        1.7361596442
 H         -1.5052250645       -2.3009075842        0.7775813420
 H          2.0177230006       -4.6145993829        1.1903726787
 C          4.9652714133       -3.1027225642       -2.0729739830
 C          3.9177192410       -4.0066499385       -1.9757017659
 C          2.8043191541       -3.6587409345       -1.2208051583
 C          2.7439789214       -2.4409425523       -0.5839558330
 C          3.7911651745       -1.5576736544       -0.6938268841
 C          4.9198041466       -1.8727696629       -1.4362891067
 H          1.9743332025       -4.3393206922       -1.1499504796
 H          3.7315178754       -0.5853719607       -0.2388924042
 Fe         0.8322334680        1.5584670580        3.2976510243
 C          1.2120010133        3.4567968486        4.1176754934
 C          1.5877312876        3.4429197054        2.7188534356
 C          2.6023837245        2.4231620088        2.5352654137
 C          2.8579930394        1.8124287735        3.8231838286
 C          1.9993640985        2.4504305097        4.8018090442
 H          0.5269494943        4.1661414970        4.5872753959
 H          3.1545991347        2.2119878850        1.6164286702
 H          3.6235783607        1.0636442549        4.0341148835
 H          1.9992737562        2.2595584276        5.8768095354
 H          3.0178776833        4.4313362669       -1.1378303095
 H         -6.2371459125        0.2821349300       -0.6307502560
 H         -1.7493424738       -6.2847911868        2.2397437261
 H          5.8263118943       -3.3578312633       -2.6642226941
 C         -3.2803838545       -4.1385126057        1.6623213365
 H         -3.5228636694       -3.6073347273        2.5834999236
 H         -3.7063503218       -3.5680597818        0.8374531749
 H         -3.7837212082       -5.1050677392        1.6878714753
 C          0.8718835350       -6.8707696015        2.1530071184
 H          0.2712570693       -7.7387107755        1.8799747381
 H          1.8460549534       -6.9800253937        1.6763463084
 H          1.0212410964       -6.8913441352        3.2326791977
 C          3.9961576694       -5.3220625637       -2.6658240256
 H          4.7319758019       -5.9677064811       -2.1860826517
 H          3.0361120507       -5.8378925396       -2.6491362666
 H          4.2872213578       -5.1973247992       -3.7090647952
 C          6.0060143122       -0.8671764780       -1.5996772822
 H          6.1052249827       -0.2522922509       -0.7035826924
 H          6.9675374781       -1.3415030588       -1.7958976192
 H          5.7766988037       -0.1915911824       -2.4256631742
 F          1.6520580245        6.3171913118       -0.9392960375
 C          0.6598854790        5.5787142116       -0.4070050128
 F         -0.5128433645        5.8540955536       -1.0090483493
 F          0.5676748881        5.8006813128        0.9180062411
 F          4.7954177666        2.8052991586       -1.4550947168
 C          3.9566237699        1.8095633618       -1.1236272027
 F          4.3361845464        1.2292958150        0.0302409525
 F          3.8935832815        0.8878849028       -2.1005230717
 F         -4.8232863184        3.3928580007       -2.0905117095
 C         -5.0276464507        2.0774749316       -2.2964794630
 F         -4.3979623879        1.6820911520       -3.4206251529
 F         -6.3454175730        1.8116048689       -2.3794633256
 F         -5.3913509362       -2.5432913410        0.4637395558
 C         -5.3328635270       -1.4740110989        1.2782782651
 F         -4.6442919726       -1.7904646120        2.3911692915
 F         -6.5699180571       -1.0442701067        1.5871985458
 H         -0.9746700160        0.6736123994        5.4040287596
 H          1.2211346860       -0.8440521167        4.8410580819
 H          1.2694612614        4.1820917046        1.9802065641
 C         -0.1868298888       -0.7067608103       -4.9771360141
 C          0.6045917274        0.0076974060       -3.7975841074
 C         -0.9472453396       -1.6582193872       -3.9526651653
 H          0.4643516595       -1.2473940177       -5.6694373624
 H         -0.8575894236       -0.0313748479       -5.5162263951
 C         -0.5966398705        0.4229907308       -2.9029715053
 C          1.2095075902       -1.2410734690       -3.0993321517
 H          1.3121645399        0.8067142889       -4.0845847427
 C         -1.5355234653       -0.5762778031       -2.9962333610
 C          0.2796851280       -2.2504045641       -3.1925104333
 H         -1.6624289339       -2.3791511099       -4.3879568173
 H         -0.7319997266        1.4051075445       -2.4482136306
 H          2.2316471741       -1.3278519839       -2.7267231503
 H         -2.5625207357       -0.5333516973       -2.6239986249
 H          0.4223509421       -3.2948965607       -2.9040937447
