111
 energy: -200.404325856651 gnorm: 0.000554972867 xtb: 6.6.1 (8d0f1dd)
P            0.02630003879879        0.80715036154009       -0.50655041049641
C            1.52758903984791        0.87342336998565       -1.55095312963058
C            1.39855129877827        0.39241678126224       -2.84720551508473
C            2.47740209348563        0.41773203174974       -3.71721407609945
C            3.70875704483080        0.90696397959443       -3.30557340002739
C            3.83354570880332        1.36448890848747       -2.00023099978343
C            2.75713440111473        1.35328822443137       -1.12399561170411
C            0.28477382648212        2.24152662172222        0.59687343373341
C            0.09866607067163        2.14438455841237        1.97161864907326
C            0.21831091088411        3.27413492819422        2.76456561294156
C            0.48315328271144        4.52017121184393        2.20936624302935
C            0.64175296627058        4.61010873493593        0.83503348592099
C            0.55009036405201        3.48304372355530        0.03189763543157
P           -2.65926484156526       -0.77593630167102       -0.34492974421144
C           -1.48978720781554       -2.20669691600907       -0.10103615098703
C           -2.11366167036699       -3.51630897998708        0.36945016675341
C            0.40541885950555       -0.55140124514718        0.58515433128376
C           -0.35494943524310       -1.75683064957005        0.76306200589223
C            0.28616290344714       -2.51203542847862        1.77303887691834
C            1.44659384721929       -1.82057086158927        2.18535510863545
C            1.53974048682827       -0.62660686392975        1.45286618316373
H            0.43805954527159        0.00687580120299       -3.17602548050038
H            2.88298603768344        1.73119167642794       -0.12125103679088
H           -0.12813473629271        1.18975800579540        2.42295302833597
H            0.69421595712571        3.57377735371933       -1.03635205975331
H           -1.07706943549281       -2.37798213941955       -1.10605146401847
H           -1.34352342965643       -4.28444020021532        0.38960768635638
H           -2.89897780141914       -3.83592940253310       -0.31036388727921
H           -2.54476195513158       -3.43043482151397        1.36249182339360
Rh          -1.89619621128208        0.87286122242405       -1.70754448392313
H            2.31016251370513        0.11189053173877        1.55875951196274
C           -3.05408749812551        1.53383427112344        3.58680009757265
C           -2.81596034129838        0.16553916044520        3.67154088017287
C           -2.70292198626100       -0.57295944987526        2.50061961684550
C           -2.81826805522528        0.05193452760527        1.26504388556110
C           -3.04205544435236        1.42568612126743        1.20560086891219
C           -3.16614637839313        2.18065861256161        2.36342227162430
H           -2.52217949622071       -1.63454903666362        2.56043594437981
H           -3.13721514682459        1.91220833078610        0.23244714233665
C           -6.67772697805486       -2.70782173538672       -1.32366095693656
C           -6.58463925905847       -1.93298774986556       -0.17496748215619
C           -5.36529282963107       -1.34478767646447        0.13993059309706
C           -4.26559424312141       -1.54317432736859       -0.68315232746092
C           -4.38061056464992       -2.31682120489753       -1.83605515397017
C           -5.58813244494998       -2.91134641870028       -2.16496092799138
H           -5.27056720143421       -0.73688041296511        1.02856273326761
H           -3.51289547727946       -2.45921598498819       -2.46857825130456
Fe           1.49966428308379       -2.21263499808979        0.17458433929851
C            2.38565695709538       -4.02609262882240       -0.14312060191405
C            3.34852395173769       -3.00063479499681       -0.25809660097705
C            2.94318223434192       -2.13710301003661       -1.29359641162472
C            1.72894697873287       -2.63153011724316       -1.82655297032364
C            1.38925334505792       -3.80044958975022       -1.11685177708385
H            2.41872769499626       -4.84663514339349        0.54803662476524
H            3.49510975920892       -1.28685631305265       -1.63995582452372
H            1.19272947020894       -2.23516784439422       -2.66670272588397
H            0.53943462645014       -4.42838571735810       -1.30468750769560
H            4.54915246487944        0.93173650991222       -3.98250903940513
H            0.56578128180998        5.39687870949530        2.83359233193502
H           -3.15016581620421        2.10564494910813        4.49769625512703
H           -7.62325320471500       -3.16685233058033       -1.57284821536587
C           -2.66546424662646       -0.48402756144128        5.00924093909032
H           -3.49476861941930       -0.21481197002759        5.65984769718018
H           -2.62314620804817       -1.56616621595153        4.92137486661534
H           -1.74821220538946       -0.13750116457592        5.48378572253440
C           -3.43010082135370        3.65169499387350        2.28546290227172
H           -4.49694109569983        3.82932503133268        2.15089598677253
H           -3.12133606598357        4.15239033833012        3.19847576450933
H           -2.90755918014995        4.09597648402523        1.44023574928971
C           -7.78358580353320       -1.72548104801471        0.69522488995880
H           -7.49987059113050       -1.32270206483077        1.66385968406097
H           -8.47136845896156       -1.02563613845982        0.22077039321265
H           -8.31671534924530       -2.66188682014696        0.84322880258234
C           -5.73239719411041       -3.75442578131642       -3.39253691340934
H           -6.47730477292180       -3.32438894728164       -4.06012662017327
H           -4.79053060657185       -3.83679739648048       -3.92836674242132
H           -6.06997168864113       -4.75433969452056       -3.12585538062689
F            1.70468078078526       -1.30318608425977       -5.12571994780361
C            2.25233238959133       -0.07592699271130       -5.12427255609317
F            1.37387575294093        0.71631144383780       -5.76978543367255
F            3.35706882967392       -0.12704188202223       -5.85713835526473
F            5.76671332828472        0.86695506291817       -0.76709397587749
C            5.16991589590256        1.83839456664268       -1.48212033214836
F            6.01165647102754        2.18871315722156       -2.45093333205857
F            5.03847719291736        2.88701909431825       -0.65894816491532
F            1.11388200710146        3.68769374091996        4.90627053009211
C            0.05947422445307        3.17900772594822        4.26161844714333
F           -1.01875315955516        3.85313668223644        4.69101330286865
F           -0.08693341752819        1.91716853661597        4.68592636201825
F           -0.20178789760198        6.26085877660371       -0.59908171238223
C            0.86974654386401        5.93653947083507        0.15451550335061
F            1.07362327511587        6.94049387418672        0.99995327994774
F            1.91287654408362        5.88938498480467       -0.68533686418996
H            2.14365989782362       -2.15639928459828        2.92688599742994
H           -0.03524729198134       -3.45804436550621        2.16120195668547
H            4.23669479072810       -2.89684706540552        0.33448481617493
C           -3.32799473225802        2.76882205730488       -4.42183775611540
C           -2.28035250534837        1.64303563532260       -4.36310384734216
C           -3.51718764996473        2.80081089459172       -2.89479110811879
H           -4.23224246014145        2.48664996421638       -4.95924278660743
H           -2.93271065434328        3.70028293956598       -4.82446150943661
C           -1.30360670995690        2.23549565071587       -3.34478000408092
C           -3.03720244802151        0.61207241292325       -3.52783732900981
H           -1.85051019734273        1.29708820286517       -5.29824000168901
C           -2.06365242864447        2.94304716095961       -2.44646888418356
C           -3.79798894882955        1.32274818815138       -2.62126838791518
H           -4.22415858135895        3.51546574179700       -2.48426360212732
H           -0.24949140025472        2.36046954195269       -3.54430110477970
H           -3.18962820833289       -0.41149892173318       -3.84357012339614
H           -1.72917584160578        3.70325761728649       -1.75243227512492
H           -4.67641363850453        0.97039150262910       -2.09625568559892
