111
 energy: -193.907414533242 gnorm: 0.000738470572 xtb: 6.6.1 (8d0f1dd)
P            0.05777553662074        0.94297127457818       -0.66440043718199
C            1.10954587430099        0.50095680253611       -2.08813660422873
C            0.49462906931232        0.00260342969456       -3.22555438511944
C            1.25497537189033       -0.31831201738613       -4.34254686091485
C            2.62882627138837       -0.13696292671116       -4.33780258525987
C            3.23551630120696        0.34473563892340       -3.18123961695950
C            2.49093132755238        0.65020451130431       -2.05441856082436
C            0.74941208419105        2.57185693885411       -0.20744778041599
C            0.62522434437714        3.01247469841680        1.10569687374163
C            1.02791486299053        4.29168197564414        1.45721532007450
C            1.55363148923276        5.16358267740504        0.51459736548197
C            1.65670150358924        4.72305341849728       -0.79690710985387
C            1.25617156342805        3.44588177888509       -1.16220071733732
P           -2.57928874597759       -0.86018715807217        0.06120738666931
C           -1.09418309032307       -1.97541499889593        0.32049851131608
C           -1.30412789467818       -3.38812366831426        0.85802095126413
C            0.66611458343004       -0.10037394757955        0.64387800552072
C           -0.02823856697685       -1.27038622409424        1.10021547351068
C            0.65074196692990       -1.74072832833055        2.25037902414732
C            1.76735528095760       -0.90679658570259        2.48145673181093
C            1.79458631076912        0.09499613136354        1.49574776215012
H           -0.58425323236938       -0.13090418330853       -3.23769011041842
H            2.97181387844443        0.99857729726437       -1.15364944193865
H            0.21640480359923        2.35901760681384        1.86236169440855
H            1.34362769709733        3.14173883519243       -2.19527386932810
H           -0.70240058940724       -2.06386639119059       -0.70520613298439
H           -0.32554953358508       -3.85129648829465        0.96711258330619
H           -1.88265901828368       -3.99183773279061        0.16725576254609
H           -1.79496943544120       -3.39409721802704        1.82435809268491
Rh          -2.13806432262454        1.01006319509152       -1.20172521254982
H            2.51469914078428        0.88788556081471        1.42999369208299
Fe           1.86427818700932       -1.75381685502330        0.62114176543770
C            2.57913207253652       -3.66927373972129        0.61223539899229
C            3.64955448880565       -2.74894922573234        0.64168133836474
C            3.57112825945185       -1.95078817378787       -0.51712230114982
C            2.45693871178868       -2.38710307173679       -1.27002189965744
C            1.84715106521280       -3.44711907544910       -0.57330051566201
H            2.38289579927286       -4.42750252585767        1.34661662336376
H            4.27491796207959       -1.18972713360447       -0.78882837993529
H            2.15443502412720       -2.03361365290944       -2.23581680154278
H            1.00858197726579       -4.01937427534573       -0.92112075533970
H            3.22063070664068       -0.37099399515376       -5.20982634018525
H            1.86604600424587        6.15883326698405        0.79135406770454
H            2.47875691320891       -1.02111154675022        3.27460861529753
H            0.38457401687969       -2.58668246081454        2.85321789010546
H            4.39854201940903       -2.67650354045760        1.40628644988954
C           -3.19056662936771       -0.26510422503769        1.71818813585296
C           -3.00584934594134       -1.20772063332980        2.90624111642390
C           -2.50766327467635        1.07229732110911        2.03007188359304
H           -4.26445584855816       -0.08183280299991        1.57410678822730
C           -3.61648901082443       -0.58014557753709        4.16021417355696
H           -1.94076738808551       -1.36867008004751        3.07797026696176
H           -3.48180110902018       -2.17038497475244        2.71842054674243
C           -3.10429479308397        1.70894551076239        3.28091132657049
H           -1.44412892919138        0.88477050713453        2.19958482198146
H           -2.60931549558880        1.76149556764353        1.17394909995471
C           -2.96029778174265        0.76199001243715        4.46859442521800
H           -3.48687873767500       -1.25894791912529        5.00410728031996
H           -4.68888296479100       -0.43589730270691        4.01195217838137
H           -2.60056016718614        2.65353119413163        3.49194218068809
H           -4.16164715439790        1.92385985822240        3.11286969754070
H           -3.41953857536931        1.20476036458580        5.35227085643933
H           -1.90089019230421        0.60831568980349        4.68511011257704
C            0.85935269880523        4.69816737639106        2.90048386893528
F           -0.42618805754283        4.57594452795874        3.28249451570465
F            1.22902621729424        5.95037619881058        3.14664694859460
F            1.56596404432295        3.89880787326759        3.71567737689900
C            2.20957228482652        5.61536327110404       -1.88138549963023
F            3.38716497849674        5.15735103584376       -2.33143370885582
F            2.39008061922554        6.87248344036088       -1.48799848164531
F            1.38377877010678        5.64244138145999       -2.94332917666276
C            4.73401776980677        0.53363308040150       -3.18603976608517
F            5.20249680339556        0.86823993581532       -1.97636854666095
F            5.10495355670208        1.49810976306246       -4.03369915251937
F            5.37056552294120       -0.58376787851630       -3.55537399336557
C            0.52766574632924       -0.86723949103560       -5.54442284233636
F           -0.05057435638875       -2.04717778832215       -5.25240043037539
F            1.30659379424940       -1.05350249006375       -6.60226674700006
F           -0.47375902428430       -0.04907916759455       -5.91449951627826
C           -3.93942224001139       -1.90087867083056       -0.66445260638337
C           -3.42376212041354       -2.55969681138605       -1.94692629740778
C           -4.65858144878234       -2.91522493812780        0.22321933874697
H           -4.69145361500834       -1.15032321060847       -0.95070548094380
C           -4.58464561194027       -3.17514553613583       -2.72358906811376
H           -2.71161871501981       -3.34864953736829       -1.70360312668887
H           -2.89625618584801       -1.81994528477366       -2.56175806177716
C           -5.81557996912780       -3.53237269549943       -0.56590886319427
H           -3.98480901283728       -3.70986307871921        0.53862691685502
H           -5.05504608033052       -2.42642919658488        1.11467644902247
C           -5.31434967527847       -4.19043473714537       -1.84834270586320
H           -4.20969580324718       -3.65963705742234       -3.62602370132057
H           -5.28430526106174       -2.39352688783041       -3.02937970371470
H           -6.32294299457859       -4.27106530704841        0.05567306747716
H           -6.54107039574021       -2.75526795753821       -0.81738946183831
H           -6.15543650808455       -4.61410303646296       -2.39726259998125
H           -4.63591338118482       -5.00840969452161       -1.59731944811830
C           -4.14270150970513        3.30436358726068       -3.13883588023623
C           -3.26195940909482        2.10068183389346       -3.51820991581783
C           -3.84441186017580        3.16749631719874       -1.63496983561387
H           -5.19448937097856        3.16117455873390       -3.38281041351689
H           -3.78897749692466        4.24335384989843       -3.56162957208410
C           -1.95906133448903        2.48428886367487       -2.81804245605012
C           -3.83279506261683        1.04032642756421       -2.57865275883203
H           -3.18670234020905        1.83176958189104       -4.56733597690903
C           -2.31800233744280        3.14065612530001       -1.66444607089162
C           -4.18995302370909        1.69348716593679       -1.41921943595037
H           -4.30462932175389        3.87936979397938       -0.95661870085850
H           -1.00846138115186        2.53655087608993       -3.32931656723926
H           -4.18802198259448        0.08314852169859       -2.93204974174276
H           -1.70141661618867        3.79336065897368       -1.06104173806325
H           -4.88955646533467        1.35878740947479       -0.66532914378922
