91
 energy: -119.877742805759 gnorm: 0.000688574736 xtb: 6.6.1 (8d0f1dd)
C           -4.88099090638111        0.22222172559193       -1.35952289119708
C           -4.96709424786634        1.56319423273754       -0.93821284218404
C           -3.95002202568022        2.29274564358510       -1.59400621322692
C           -3.23168928537248        1.40013720253812       -2.41298807515713
C           -3.82298063408444        0.12556084504364       -2.28412018258607
H           -5.53330368010874       -0.57510639923472       -1.05918135181095
H           -5.69026697729849        1.96664520411322       -0.25676564130132
H           -3.79012598751831        3.35038476028054       -1.51092133313576
H           -2.42348459723989        1.66132341502816       -3.07018379283251
H           -3.56761036935240       -0.75121578524526       -2.84652467445058
Fe          -3.14620881706748        0.85962393611903       -0.40679064063595
C           -2.51261265974386        2.08198511547395        1.05198972385624
C           -1.41113753861343        1.42101952347834        0.45548390552074
C           -1.55939391237911        0.01235789664220        0.66341406313425
C           -2.80792275729772       -0.15707819268112        1.34189029923994
C           -3.37159827710467        1.10381048981162        1.58940994564927
H           -2.68473416611935        3.13932333967425        1.08397212275377
H           -3.25886593355537       -1.07899651513199        1.64585281111650
H           -4.30019855943801        1.28555726204146        2.09179081490489
C           -0.37543342723365        2.06414926287274       -0.39575368224432
H           -0.42035107338111        1.57709028246212       -1.38128519849326
P           -0.28152164682692       -1.23919426567712        0.38800415184098
C           -0.62872477308410        3.55364733197202       -0.59420531571040
H            0.05797936661749        3.97091731980235       -1.32547534621230
H           -1.64160183322893        3.68495396707569       -0.96600358178637
H           -0.51612898217350        4.10683390344279        0.33457659549530
P            1.34581311234442        1.64316388496817        0.17808671876159
Rh           1.89161856805401       -0.54857320676866       -0.13663578863392
C            1.61917997817584        2.43943965981300        1.78618751935925
C            2.20113690151258        3.51528204005203        4.28210331600388
C            3.23179252621380        3.15380537623008        3.42797980635113
C            2.94340367059985        2.61178448927610        2.19041093335385
C            0.59079531969802        2.78117949819973        2.65736702626209
C            0.88525588116332        3.32356982701838        3.89651463766565
H            2.42519806389452        3.93948912203412        5.24846205701856
H            4.25903300049630        3.29346043682454        3.72901772761729
H            3.74465825366298        2.32658626630802        1.52050021168814
H           -0.43756028247959        2.62034746654494        2.37498236419225
H            0.08176544806827        3.59476723130902        4.56445600845285
C            2.23554967970837        2.69419211331263       -1.02099432624783
C            3.42671404176750        4.18591498407666       -3.03710066984453
C            3.37515039490811        4.67862273274361       -1.74418063213493
C            2.77713791375130        3.94039515799509       -0.73552111976177
C            2.28524569723365        2.20531625082322       -2.32621116005215
C            2.87670758630205        2.94639757736696       -3.32995541325699
H            3.89458811320051        4.76557023621502       -3.81735300009313
H            3.79882186433574        5.64454494377097       -1.51720699651415
H            2.73152400184684        4.33773777988429        0.26771068838243
H            1.86392385116965        1.22552038210529       -2.53760875787178
H            2.91349991816432        2.56219296728106       -4.33818505557103
C           -1.13941836814147       -2.29026472579725       -0.93079037462406
C           -2.62708575880424       -2.51932263976436       -0.68693618107686
H           -2.79684103396353       -3.14411225746492        0.18313129676284
H           -3.15618839683332       -1.57733700955218       -0.56815889802948
H           -3.04770364265123       -3.03543357262368       -1.54759919400159
C           -0.95689071127708       -1.39969716816849       -2.16372048503789
H           -1.47129120320395       -0.45209333992514       -2.00292116020800
H            0.10204551706622       -1.19518438784645       -2.33846862794327
H           -1.36363516726637       -1.87734037261891       -3.05147188552189
C           -0.44933629532557       -3.63507314277195       -1.13940020552837
H            0.58536676675993       -3.50818495953620       -1.43946101248581
H           -0.48380687286358       -4.24351480960633       -0.23887369030016
H           -0.95858650496096       -4.18518866703087       -1.92903125006461
C           -0.19043601193886       -2.02423334453787        2.13198124056653
C           -1.29977935197020       -3.00463113174024        2.49828248255498
H           -2.27736801687198       -2.53798177700784        2.51745222466159
H           -1.32276228636514       -3.85147637491988        1.81745359529821
H           -1.10647212746041       -3.39136149994427        3.49833746912828
C            1.14627602829167       -2.75597945482465        2.25698398777669
H            1.17374108498161       -3.63894750624935        1.62401592030894
H            1.97170847057364       -2.08550349622756        2.00070175877407
H            1.28923539445529       -3.08418412400855        3.28546124998536
C           -0.16180494298899       -0.84840289085895        3.11335803467181
H            0.58695949426940       -0.11489238865677        2.80336878820294
H           -1.12580397431924       -0.35320276773509        3.18380663095372
H            0.10458410082652       -1.20446849685009        4.10671664240945
C            5.08562295765647       -2.02390359460701       -1.07056298717072
C            4.10897432868271       -1.08415562407031       -1.79921127186221
C            4.19776201881727       -2.12229490009842        0.18279029344970
H            6.05523586718166       -1.56667042423387       -0.87748532599946
H            5.22145689263441       -2.98017211419995       -1.57463555823768
C            2.81599967415967       -1.88115070829771       -1.66925243418082
C            3.92821025593872       -0.00198677387648       -0.73795913173936
H            4.37449320821443       -0.74518866660901       -2.79611264001685
C            2.86825520709027       -2.52345334417991       -0.45598492146478
C            3.97901934077148       -0.64278070774060        0.48098193997105
H            4.54631657083434       -2.73995614311103        1.00538946565095
H            2.19275173421371       -2.12187172867851       -2.51936652273707
H            4.14396596301368        1.03746645970906       -0.92967068850392
H            2.33662970355857       -3.41528522286900       -0.17171854656940
H            4.16461177496708       -0.19741473005059        1.45063982651565
