111
 energy: -136.683276750632 gnorm: 0.000428785008 xtb: 6.6.1 (8d0f1dd)
C           -4.31171603277095        0.08165283676176       -1.97185184340320
C           -4.97351262087423        1.09942855155485       -1.26201099036381
C           -4.21725134443597        2.28430971239322       -1.39102073859137
C           -3.08747521766254        1.99530300022343       -2.18318410613162
C           -3.13835313048532        0.63424833972421       -2.53513978850641
H           -4.66871652570766       -0.92169788422108       -2.10295282435388
H           -5.89689501596783        0.99820665908986       -0.72720918409639
H           -4.48337671852835        3.24160817673140       -0.98553752825716
H           -2.35933132865506        2.70614581301292       -2.52366982669782
H           -2.43484021114020        0.12135874420223       -3.16316251870578
Fe          -3.12386258968362        0.85266166365901       -0.45652942465587
C           -2.84208624159174        1.79172366607168        1.30196733938202
C           -1.59911443635286        1.38444802824979        0.74993905713747
C           -1.60375617038821       -0.04549911663317        0.65929053105306
C           -2.90434707985348       -0.47044550260625        1.07542724162846
C           -3.64379205862245        0.65125771369278        1.48417707538531
H           -3.15559144959002        2.78839762360954        1.53450415961062
H           -3.26959045047337       -1.47569951139174        1.10717210692696
H           -4.64589687497447        0.63969281736546        1.86179502324643
C           -0.66529852717727        2.31520761770103        0.03499428819854
H           -0.76486971080501        2.04018395571243       -1.01946768355476
P           -0.17100009454853       -1.10399107283380        0.41270005736857
C           -1.17455624535141        3.74467973446360        0.21116426244780
H           -0.54597295847084        4.47246778842538       -0.28316727608546
H           -2.16929923919666        3.80678165801752       -0.22567424459480
H           -1.24472145040026        4.01106411062162        1.26177414337172
P            1.16399120928551        2.04514613117599        0.30219643869692
Rh           1.95100757276401       -0.17895424179484        0.22645433285636
C            1.43354224254353        3.06988855371185        1.86391145536222
C            2.52165827760696        2.47181977977274        2.76008325951111
C            3.92315190085797        2.92334352473746        2.36373920590909
C            4.03185566381291        4.44144727614552        2.41168755525316
C            3.02411603924710        5.04086073506035        1.44119552434181
C            1.60985311306919        4.59202634982112        1.79444881298118
H            2.33413485053538        2.78906460658369        3.78896957782357
H            4.65804680289287        2.47717246896130        3.03700409635631
H            5.04264768457807        4.75384509906988        2.14593229700378
H            3.06830741288091        6.13062590641067        1.47940174413467
H            0.90290194251752        5.04463678841265        1.10402632951682
H            3.27757292807289        4.73483957981810        0.42533754492577
H            1.37510683519860        4.98014007602970        2.79008362075161
H            0.47612866944306        2.87129220751212        2.36999933676279
H            2.44302895596050        1.37987388152760        2.73425702795950
H            4.14185192775368        2.59248410408410        1.34640828605091
H            3.82709338604211        4.79509238897875        3.42380374222382
C            1.94246173774840        2.81330393624281       -1.24590973442950
C            1.99413931929017        1.77108716616960       -2.38121679419867
C            0.78170457770150        1.76830633863949       -3.30661247906652
C            0.57304910371208        3.14955282128513       -3.91169250288720
C            0.36573640346250        4.16746738381253       -2.79817759894081
C            1.54571745363251        4.17952653755022       -1.82730600970336
H            2.87847955578682        1.97702628583200       -2.99004541379075
H            0.95125566644936        1.03843731216368       -4.10096552212626
H           -0.29078616577577        3.14480351225199       -4.57810976144337
H            0.26368028128921        5.16728906475755       -3.22474380829272
H            1.37358835024773        4.90838120801571       -1.03625717794793
H           -0.56318578988914        3.93652162547884       -2.28202190598293
H            2.41626133491198        4.53338694549527       -2.38909044583778
H            2.97282000927550        2.93943763360554       -0.88664041908790
H            2.09846927817809        0.76178918907459       -1.95752569968189
H           -0.11187215918060        1.45455727069637       -2.76155736617938
H            1.44866629294475        3.42206501897784       -4.50400957021609
C           -0.66622890486380       -2.15923927746196       -1.08028152681077
C            0.02276274542374       -3.52365111424672       -1.22220924793851
C           -0.72384355642905       -4.67720577563460       -0.55680095633263
C           -2.14767580079776       -4.77024845442305       -1.08658551640924
C           -2.87031493707808       -3.46750201391435       -0.77649145754349
C           -2.15549806296881       -2.28052356730925       -1.41150175325672
H            0.08707743412958       -3.74699287848879       -2.29093779284416
H           -0.18526315382909       -5.60482549040819       -0.75945778467280
H           -2.66695474493061       -5.61025204424939       -0.62374769049209
H           -3.89389067598021       -3.50195950242278       -1.15309934845149
H           -2.65930186491091       -1.35328142606386       -1.14299094382434
H           -2.92234134514501       -3.35170764288976        0.30590185795093
H           -2.23268177046621       -2.39670052215933       -2.49475227160477
H           -0.24711044637803       -1.50273946940082       -1.86216979219005
H            1.03981524328615       -3.48969099354420       -0.83815172123284
H           -0.75616236859093       -4.54101789933233        0.52479069482461
H           -2.13074703871456       -4.93857700273461       -2.16494562726532
C           -0.01847750282663       -2.17617354715884        1.96938880579019
C            0.96231858235040       -1.52382708354893        2.95370068152270
C            0.29166328913449       -0.45885855362133        3.81060461199759
C           -0.79904795764716       -1.10121246241278        4.65605229035203
C           -1.85062807157639       -1.70409523124715        3.73535335378821
C           -1.23734061357069       -2.69237370084651        2.74427618309372
H            1.36534277387176       -2.29965152433820        3.61006269482217
H            1.03326874151868        0.01849130369625        4.45329768078700
H           -1.26256242728936       -0.36014949832711        5.30846755574628
H           -2.60617208973549       -2.22933129400109        4.32263278793357
H           -2.00580973001556       -3.04928570203155        2.05949533879606
H           -2.34554268763788       -0.89232283156067        3.20712152619609
H           -0.89312578150412       -3.56249963974192        3.31267530803413
H            0.47921841496031       -3.06189828344458        1.55354109665484
H            1.80610464435344       -1.07354675585782        2.40739246185808
H           -0.14268985408875        0.30732637983515        3.16036276556208
H           -0.35973299228812       -1.87561240269912        5.28843590459845
C            5.19841181475562       -1.75283651491792       -0.38378938438368
C            4.25558639479597       -0.89128223626587       -1.24084668635560
C            4.28603528151257       -1.67762867755586        0.85221551191223
H            6.17433012500492       -1.29485766121124       -0.22709070457603
H            5.32217192735706       -2.76574362906673       -0.76504534987383
C            2.94147263351415       -1.64047831741998       -1.04580908339386
C            4.07519446998462        0.31448903821285       -0.32127326485540
H            4.54887100238099       -0.68222645908648       -2.26531474976222
C            2.95958641188155       -2.12421659816522        0.24811213800817
C            4.08905293268597       -0.17196183586597        0.95895054293729
H            4.60620837468687       -2.19044104471818        1.75426407594424
H            2.34683642299747       -1.99270922099292       -1.87713268655250
H            4.28476498233007        1.32237625072618       -0.63807777519803
H            2.42552131916523       -2.97371234716675        0.64234456871078
H            4.26075083603845        0.37115069570891        1.87371312166892
