  87
       -128.13170115
 P          1.0274421480        1.0788732032        0.2394445723
 P         -1.3632485767       -0.9609788338        0.6345342919
 C         -0.0713991527       -2.1263825116        1.3074105858
 C         -0.7025685463       -2.9084786648        2.4458708232
 C          1.7942938541       -0.1935553884        1.2863602228
 C          1.2529168624       -1.4910994538        1.6913787506
 C          2.2759899033       -2.1454437899        2.5034665728
 C          3.4183013769       -1.2621567523        2.6022573314
 C          3.1185344818       -0.0592268046        1.8553885180
 H          0.1259327554       -2.8059045415        0.4711235729
 H         -0.9387383988       -2.2518984376        3.2846522797
 H         -0.0369677403       -3.6907571894        2.8164356308
 H         -1.6328595487       -3.3881828519        2.1342304911
 Rh        -0.8105234869        0.5413968089       -1.0845731288
 H          3.7583504677        0.8198290982        1.7603859657
 C         -2.3946900079        2.1959647419        3.7858602661
 C         -3.2472233134        2.0293455388        2.7158618850
 C         -2.9899338669        1.0830316779        1.7307970316
 C         -1.8534979973        0.2898614706        1.8560757488
 C         -0.9963006227        0.4729952395        2.9186033129
 C         -1.2638059420        1.4183675277        3.8879516769
 H         -0.0914415074       -0.1059062492        2.9799747281
 C         -4.8634793484       -3.7174209525       -0.3756942965
 C         -4.9044513942       -2.8989047835        0.7315144343
 C         -3.8329788634       -2.0721056561        1.0082541602
 C         -2.7354683108       -2.0478873134        0.1754849168
 C         -2.6632704947       -2.8960352744       -0.9229159017
 C         -3.7496914400       -3.7218114717       -1.1891021660
 H         -3.8422293192       -1.4485690470        1.8875996453
 Fe         3.0144584558       -1.7408553398        0.5912016408
 C          2.5134103213       -3.1607156248       -0.8798103843
 C          3.8122219636       -3.4593176365       -0.3064188755
 C          4.6774582540       -2.3170795967       -0.5338709813
 C          3.9108031872       -1.3139513711       -1.2467572784
 C          2.5730047170       -1.8327787107       -1.4579932264
 H          1.6637113736       -3.8439634471       -0.9230930666
 H          5.7287290080       -2.2401034054       -0.2492086098
 H          4.2731795821       -0.3396572687       -1.5774643999
 H          1.7697442197       -1.3150290224       -1.9840189305
 H         -2.6090607514        2.9381855583        4.5372275274
 H         -5.6950703041       -4.3662510404       -0.5970657781
 H          4.3314860729       -1.4541769220        3.1686958047
 H          2.1941146524       -3.1315122791        2.9622765783
 H          4.1012214867       -4.3964179728        0.1733741820
 C          2.1770911966        1.4880753419       -1.0901696835
 C          3.2328194437        2.3536726829       -0.9549061118
 O          2.1302056000        1.0010180840       -2.3683735480
 C          3.8680070620        2.4135327924       -2.1957175275
 H          3.5019396612        2.8886888141       -0.0583129090
 C          3.1701850279        1.5806150961       -3.0363988830
 H          4.7341673916        3.0036214850       -2.4470997364
 H          3.3988030033        1.3955067332       -4.0791209800
 C          0.7642237750        2.5299993607        1.2869958236
 C          0.0369235674        3.6592959106        1.0025807403
 O          1.3206563458        2.6408733054        2.5313262281
 C          0.1434833640        4.5032053553        2.1066627276
 H         -0.5000028605        3.8653179857        0.0942036153
 C          0.9350730889        3.8546616452        3.0217871417
 H         -0.3023641241        5.4781193269        2.2176870266
 H          1.2237225499        4.2338798498        3.9949883028
 C         -3.9507837184        0.9586216982        0.5975687751
 H         -4.8881117102        0.5130215201        0.9310159424
 H         -4.1852445203        1.9364948945        0.1769168160
 H         -3.5526431891        0.3390268778       -0.2040243362
 C         -1.4459762283       -3.0034416778       -1.7773093080
 H         -0.9402207301       -3.9539434433       -1.6063157520
 H         -1.7054424924       -2.9517705088       -2.8350061637
 H         -0.7341332068       -2.2064634500       -1.5691832705
 H         -3.7065529378       -4.3834243211       -2.0371568667
 H         -5.7642042954       -2.9071054934        1.3807944385
 H         -4.1295532824        2.6404410520        2.6332845075
 H         -0.5799811599        1.5586129833        4.7087753333
 C         -2.1234241877        2.1507248853       -4.0661038802
 C         -2.7752082362        1.6195390702       -2.7156587158
 C         -0.6711925633        1.7043470111       -3.5976016132
 H         -2.2211785009        3.2321323859       -4.1964544085
 H         -2.4735491087        1.6165368198       -4.9538193040
 C         -2.2270332962        0.1610109589       -2.7262069192
 C         -1.8828463003        2.3765109007       -1.6857358411
 H         -3.8677713915        1.7409817522       -2.6153115090
 C         -0.9598536421        0.2106003008       -3.2591356725
 C         -0.6173882761        2.4289851335       -2.2190742241
 H          0.1621002867        1.9027756706       -4.2941000325
 H         -2.7885868808       -0.7391900376       -2.4669262668
 H         -2.2292216952        2.8726986099       -0.7764785496
 H         -0.3233881957       -0.6413433044       -3.5112734841
 H          0.2404561379        2.9775750963       -1.8240734348
