87
 energy: -128.202199740287 gnorm: 0.000263673126 xtb: 6.6.1 (8d0f1dd)
P            0.03436842267214        0.97405230855637       -0.54208243692222
P           -2.65079517166379       -0.78160707201288       -0.14692917463655
C           -1.23178288240030       -1.99133273170972        0.07577344019267
C           -1.55396551700674       -3.43615970981113        0.43065384214546
C            0.44530168218534       -0.15775579787810        0.78259278349235
C           -0.26207143520236       -1.38123265972709        1.03344330601261
C            0.27754958761657       -1.95216979682515        2.20895197975586
C            1.32424485073516       -1.12010723761086        2.66493115985567
C            1.44153189239762       -0.02332809819368        1.79140764986238
H           -0.73615554783038       -1.98231848342031       -0.90358155201540
H           -0.64692528885536       -4.02524877601420        0.31621523046380
H           -2.32359460732766       -3.84448604926899       -0.22014604059384
H           -1.88060195387894       -3.53099288682006        1.45847746227059
Rh          -2.05480120305459        1.01890270661669       -1.40791437570836
H            2.14382700727605        0.78233321273276        1.88033060562099
C           -3.43478971567642        0.86330820641567        4.08582289293717
C           -3.78215261247366       -0.44974975873538        3.84028010261467
C           -3.61788815693911       -1.03816302906287        2.58820176541457
C           -3.07989977364181       -0.26398281017965        1.55438507856429
C           -2.74852617051947        1.07123310969656        1.81145645705235
C           -2.91905527338508        1.63581089322411        3.05767278503202
H           -2.35097443785449        1.68225093270510        0.99931636721770
C           -6.26850856326790       -2.83612091614861       -2.09957507676051
C           -6.42029002360224       -2.14007467656568       -0.91175872521349
C           -5.31941982350110       -1.55456861702971       -0.31758518162993
C           -4.05369202737190       -1.67068226406145       -0.89044900110902
C           -3.90990741529356       -2.30443312413251       -2.13244905657416
C           -5.02697467984955       -2.89875212373790       -2.70668266502006
H           -5.43658925326628       -0.99611614312035        0.59987458812402
Fe           1.70367694150570       -1.76763071255437        0.75152395956547
C            2.83792580383166       -3.48969566096179        0.77374404521840
C            3.67729124767780       -2.35790811640248        0.68010570870593
C            3.34263511271492       -1.66460351956712       -0.50048380248474
C            2.30282193975642       -2.37419018237677       -1.14434871304452
C            1.99593190806217       -3.50283055119360       -0.35884554445617
H            2.86022512883103       -4.22985749277842        1.55149578829067
H            3.82312013045461       -0.77848714720913       -0.86562383118124
H            1.87074895045583       -2.14275014641126       -2.09930432506310
H            1.29022263862877       -4.27195910382629       -0.61011547702337
H           -3.57263055501162        1.28472477352236        5.06939761964437
H           -7.11967467329933       -3.30765589435326       -2.56528932575839
H            1.92943053589059       -1.29662129786528        3.53278426467275
H           -0.03266939936937       -2.86364296688230        2.68093105218176
H            4.44455652412458       -2.08150979018669        1.37835348404466
C            1.08776664698874        0.57465769123821       -1.94359883819388
C            2.35386402618526        0.82358676314718       -2.39133167938495
O            0.38583552691993       -0.10526807273413       -2.88892249319003
C            2.43266406481812        0.24571398236535       -3.67863705267219
H            3.12145446778410        1.35816057277116       -1.87194027388439
C            1.21045654048715       -0.30270429351804       -3.92594875526764
H            3.28280390843415        0.24253514669414       -4.32872010856659
H            0.82639343610624       -0.83562462670410       -4.77380633423647
C            0.76932604982505        2.50919955031382        0.03460247200425
C            0.76589072268886        3.14812649624526        1.24734394415667
O            1.30672403406949        3.31679085676847       -0.91051594503731
C            1.37110847554206        4.40512779301325        1.02866504308128
H            0.38959026668000        2.75828804262823        2.17137557748749
C            1.67660715488045        4.44970319334861       -0.29842555230348
H            1.55324548857429        5.16768652481823        1.75700369482569
H            2.14786534722128        5.20300091245270       -0.89836919945043
C           -4.05749919093272       -2.46174885440073        2.44001182884591
H           -5.10353148712819       -2.55485902539743        2.73124678820539
H           -3.95255342417480       -2.81979879277079        1.42214029220348
H           -3.48372652987610       -3.09988293881460        3.11138033036069
C           -2.60433733224648       -2.31368835736645       -2.86779970589099
H           -1.96583218258677       -3.12792249079838       -2.52803025758711
H           -2.77700154948149       -2.45436028183679       -3.93286534821531
H           -2.07163769839141       -1.36452507879726       -2.72152321138516
H           -4.92217408862103       -3.40670022680207       -3.65440263085921
H           -7.39261088561961       -2.05067760044077       -0.45293102580813
H           -4.19667979205954       -1.04946964322791        4.63748559424166
H           -2.65659899167587        2.66869857975935        3.22747574306332
C           -3.86384501114329        3.34108199490985       -3.48155950589207
C           -3.04768806872895        2.07390244405365       -3.78968646289253
C           -3.61065219874045        3.24923759617744       -1.96675030461519
H           -4.91655575252353        3.24772975323768       -3.74627809135087
H           -3.44668165266391        4.24112245684934       -3.93226734057940
C           -1.74085173091861        2.40749971650453       -3.07167212775281
C           -3.70115391819739        1.08552252684806       -2.82366626171463
H           -2.96710806091578        1.75985624551791       -4.82618521777357
C           -2.08692464247595        3.13056059751062       -1.95477174780682
C           -4.05107526839979        1.80915883337228       -1.70387663332847
H           -4.04389494854811        4.01512707747326       -1.33020897782393
H           -0.77069864274173        2.36950632002824       -3.54735775664530
H           -4.12192569610237        0.14068793069271       -3.13754054769127
H           -1.44770378401130        3.77511246237026       -1.36660827685596
H           -4.77989067165303        1.53545408365863       -0.95252446756448
