  119
       -157.62740492
 P          1.0839729502        0.1759773323        0.3641097035
 C          1.0265142930        1.9379809952        0.6775591028
 C          0.7809022415        2.8194773058       -0.3489554409
 C          0.7893878250        4.1844761586       -0.1237639074
 C          1.0361367073        4.6638074186        1.1764460588
 C          1.2800956985        3.7527611966        2.2220637645
 C          1.2977433644        2.3966436507        1.9451021045
 C          2.7675537714       -0.2057698651       -0.1594141907
 C          3.2943461272       -1.4657298819        0.0065259404
 C          4.5700926308       -1.7675291162       -0.4326957059
 C          5.3429302823       -0.7609454573       -1.0407230486
 C          4.7958374812        0.5234659949       -1.2185327940
 C          3.5143513703        0.7803619476       -0.7644201773
 P         -2.3009464746        0.2386718332        0.3375758982
 C         -1.8985114239        0.0246535338        2.1606106244
 C         -1.7227102491        1.3382107033        2.9022467656
 C          0.6274699335       -0.7629875391        1.8642159614
 C         -0.7203149135       -0.8938388488        2.4173193454
 C         -0.6226551764       -1.7692380517        3.5841346863
 C          0.7624556661       -2.1531744112        3.7565322401
 C          1.5338276685       -1.5263408118        2.7034181868
 H          0.6024541203        2.4472603266       -1.3420596659
 H          1.5150670334        1.6904700434        2.7294935475
 H          2.7064105121       -2.2294123543        0.4804676860
 H          3.0967326692        1.7649288547       -0.8865579248
 H         -2.7889462089       -0.4760134025        2.5620375608
 H         -2.6253716695        1.9477050723        2.8990575111
 H         -0.9257344695        1.9291590055        2.4579121815
 H         -1.4526645046        1.1644184234        3.9457378865
 Rh        -0.6175074517       -0.4247244403       -1.1668297814
 H          2.6185981034       -1.5712061687        2.5952426811
 Fe         0.0739249737       -2.7709890057        1.8687728233
 C         -0.0088171990       -4.8392619360        2.1391377485
 C          1.2121804139       -4.4854297301        1.4380731898
 C          0.8426126040       -3.8213175880        0.2029977887
 C         -0.6017336493       -3.7593534504        0.1422436864
 C         -1.1320662055       -4.3891619816        1.3373226220
 H         -0.0716348101       -5.3847643896        3.0829233525
 H          1.5177094125       -3.5547030022       -0.6113215099
 H         -1.1726991676       -3.3993693111       -0.7127771880
 H         -2.1861257348       -4.5620880338        1.5625488198
 H          1.1622935174       -2.7656101431        4.5669824556
 H         -1.4408508592       -2.0064326935        4.2656445083
 H          2.2274231174       -4.7293927725        1.7572039652
 C         -2.6995503831        2.0415427474        0.0641435142
 C         -2.5949087152        2.5102941693       -1.3951878907
 C         -4.0770381674        2.4231827581        0.6341083000
 H         -1.9296716558        2.5784780167        0.6309621926
 C         -2.8106018935        4.0345305292       -1.4931574504
 H         -3.3608862540        2.0045665491       -1.9903954033
 H         -1.6329719689        2.2145963476       -1.8310895389
 C         -4.3010732184        3.9463210016        0.5593959168
 H         -4.8553305759        1.9242297451        0.0471308319
 H         -4.2081365104        2.0446677909        1.6546408356
 C         -4.1697904626        4.4428196910       -0.8935909202
 H         -2.7196051606        4.3774949873       -2.5326429628
 H         -2.0150036712        4.5461111112       -0.9401810787
 H         -5.2774775062        4.2200932259        0.9816211310
 H         -3.5569230335        4.4533329305        1.1853109192
 H         -4.3085325969        5.5313061502       -0.9474269340
 H         -4.9774714718        4.0140981001       -1.4988640194
 C         -3.8836956661       -0.7379660425        0.1643007010
 C         -4.6046797518       -0.6133703914       -1.1872735485
 C         -3.6752981245       -2.2170181258        0.5116539290
 H         -4.5377828668       -0.3041802577        0.9315320908
 C         -5.9610391739       -1.3462772206       -1.1547211929
 H         -3.9813658449       -1.0617327952       -1.9649152333
 H         -4.7300388003        0.4356956205       -1.4760571154
 C         -5.0194217480       -2.9707779897        0.5609182932
 H         -3.0421501901       -2.6663271323       -0.2583419893
 H         -3.1209901365       -2.3241634871        1.4525012013
 C         -5.7772917874       -2.8287019904       -0.7737309387
 H         -6.4779427885       -1.2521476279       -2.1194551953
 H         -6.6176374510       -0.8618106005       -0.4222061730
 H         -4.8635813687       -4.0290296816        0.8108480671
 H         -5.6337022699       -2.5649189908        1.3734520522
 H         -6.7482296740       -3.3404004500       -0.7253448366
 H         -5.2166062274       -3.3400343207       -1.5654510512
 C          5.5988071345        1.5844443830       -1.8730754625
 O          6.6637135332       -1.0399568744       -1.4752884610
 O          1.0354608649        6.0596276132        1.4283431645
 C          2.3182645544        6.6469477991        1.3511588963
 H          2.7169153015        6.5269707776        0.3437181937
 H          2.2316492586        7.7088927350        1.5833605697
 H          2.9874112328        6.1715141501        2.0684265214
 C          7.6425354671       -0.8041113672       -0.4840763631
 H          7.6189499124        0.2443341905       -0.1859905491
 H          7.4484154397       -1.4361367662        0.3828118888
 H          8.6232557731       -1.0433088485       -0.8966935413
 C          5.1313645812       -3.1290771501       -0.2583777997
 C          1.5321412652        4.2506066165        3.5959505281
 C          0.6134287097        5.1465371869       -1.2389753317
 H          0.0239271153        4.7162521129       -2.0490526129
 H          1.5795271554        5.4390619221       -1.6510323654
 H          0.1102158245        6.0499023737       -0.8922822360
 H          1.1793640330        5.2769140751        3.7049830093
 H          2.5973439801        4.2312901162        3.8281733875
 H          1.0128183150        3.6398828997        4.3354116700
 H          4.9959496215        2.1490390863       -2.5852746968
 H          6.4387531254        1.1506933688       -2.4173105336
 H          5.9968977749        2.2823459767       -1.1358426584
 H          5.4329079484       -3.2966667844        0.7760489947
 H          6.0069172112       -3.2687487400       -0.8937174013
 H          4.3998508695       -3.8920147447       -0.5271928318
 C         -0.1519868156       -1.1714917212       -4.7145631757
 C         -0.1382249545       -2.0441761190       -3.3834708407
 C         -0.4506317483        0.1612336530       -3.8972399651
 H         -0.9571267137       -1.4458347744       -5.4020048171
 H          0.8129421284       -1.1549070341       -5.2291239999
 C          0.9004985187       -1.2304920860       -2.5603661891
 C         -1.5187462720       -1.6331327359       -2.7956621754
 H          0.0540299856       -3.1250651023       -3.4996319166
 C          0.7148512677        0.0959222369       -2.8700971401
 C         -1.7052417397       -0.3051795475       -3.1037648195
 H         -0.5477753836        1.0920306838       -4.4825564590
 H          1.7284744859       -1.6420061280       -1.9803909193
 H         -2.2705244215       -2.3190979580       -2.3998306561
 H          1.3855870425        0.9132846665       -2.5982598983
 H         -2.6346320207        0.2566665772       -3.0033966799
