119
 energy: -157.670624885048 gnorm: 0.000531619692 xtb: 6.6.1 (8d0f1dd)
P            0.02870195457844        1.00421370310720       -0.68792414347028
C            1.01497804069510        0.52792859945374       -2.12797278135583
C            0.37478329587417       -0.06089559179357       -3.21078777919808
C            1.08584732566628       -0.41135488535084       -4.34022473567928
C            2.47180374403482       -0.15481031496634       -4.40160350206835
C            3.13528236308030        0.40376544352012       -3.29670838234149
C            2.38487977520592        0.72915960762688       -2.17475175968418
C            0.70044156507323        2.62984182915609       -0.22265775671756
C            0.56659836040014        3.07778130484174        1.08657564419998
C            0.96300059122417        4.35404670049452        1.45348287388455
C            1.49709716064381        5.20144047052773        0.47697684461915
C            1.61116223421914        4.77921407866541       -0.85183330472155
C            1.20095346932820        3.49778087999041       -1.18580499857451
P           -2.58576210923733       -0.85236319311995        0.04414334090420
C           -1.09530081759403       -1.96608523344950        0.25618464358299
C           -1.27687544694918       -3.39629580564921        0.75607387916216
C            0.62267732011085       -0.06183964443497        0.62210157712024
C           -0.04082155799033       -1.25744782086949        1.04815244812985
C            0.64620220689235       -1.74244275270847        2.18901301823307
C            1.74287839483284       -0.88828441237102        2.44131330494902
C            1.74128373697689        0.13818393783669        1.47872072805742
H           -0.69918002143781       -0.23493395823666       -3.16116226498629
H            2.87831342074711        1.14187909746681       -1.30740314038317
H            0.14887616753643        2.42358907130456        1.83810751102511
H            1.28137364881095        3.17193998262443       -2.21343660210515
H           -0.70727523650544       -2.01804528574012       -0.77322971106316
H           -0.28881297754444       -3.84273635332644        0.84937054941564
H           -1.84728588124914       -3.99252282465881        0.05154435872047
H           -1.76240375613356       -3.43833093143017        1.72424407902399
Rh          -2.18404347354704        1.03573951532329       -1.18992975806875
H            2.43846435213145        0.95226477833563        1.42322475289013
Fe           1.86582409951291       -1.69877857898487        0.56753091605690
C            2.64089505925201       -3.59192843786277        0.53778332473207
C            3.68277452826763       -2.63841330198075        0.56417236443447
C            3.56819324543899       -1.83851942497012       -0.59111547728011
C            2.46457754744353       -2.30605552918073       -1.33872172157537
C            1.89376293049307       -3.38674648752884       -0.64201915831442
H            2.47378470259695       -4.36037722675752        1.26937448207883
H            4.23264297447120       -1.04580987683564       -0.87153797046508
H            2.14404899603435       -1.94440143482434       -2.29526612966823
H            1.07033234389867       -3.98414570818773       -0.98475472735320
H            2.45494581395439       -1.00421547077013        3.23469525088121
H            0.39830403085545       -2.60943561375479        2.77046150304394
H            4.43677099948254       -2.54990606129137        1.32320014890043
C           -3.18553775430939       -0.32610292248887        1.72913704143266
C           -2.97307118536650       -1.30238910750694        2.88465122094789
C           -2.52443080718676        1.01186183604104        2.07898129910052
H           -4.26419880578956       -0.15611531826457        1.60184211456053
C           -3.58605528434485       -0.72996746544737        4.16323489455364
H           -1.90358737091487       -1.44698470731934        3.04201496994878
H           -3.43063974077380       -2.26825552610342        2.67002511962753
C           -3.12693481097827        1.59400091416738        3.35294378491325
H           -1.45594580837712        0.84227470322980        2.23318146895036
H           -2.64243787976348        1.72392031941498        1.24582490962717
C           -2.95423297625034        0.61419869755249        4.50991625161838
H           -3.43662247755066       -1.43315043803356        4.98404713741640
H           -4.66241477376311       -0.60199949310183        4.02734193330463
H           -2.64419283158404        2.54337140376079        3.59155107451124
H           -4.19024325824663        1.79104494769960        3.19896242132958
H           -3.41361632714428        1.01873047037084        5.41251009137634
H           -1.88964908404785        0.47317296622012        4.71025706480704
C           -3.96030403263040       -1.88829481906019       -0.67065180376022
C           -3.47169892049823       -2.50437219764688       -1.98392236241999
C           -4.64674763846591       -2.93522942498579        0.20444946780905
H           -4.72560253931069       -1.13661415983406       -0.91626762379692
C           -4.64040964205681       -3.12101798736701       -2.74693498819187
H           -2.73629390208231       -3.28358616792111       -1.78034353319016
H           -2.97645581435801       -1.73567006057367       -2.58964359064452
C           -5.81196969767347       -3.55211490323548       -0.57162099325797
H           -3.95377706073463       -3.72559351590940        0.48692608951255
H           -5.03162189803946       -2.47372013027857        1.11507885320589
C           -5.33070963958262       -4.17100889791475       -1.88061295924381
H           -4.28208724551130       -3.57663867677342       -3.67150071760999
H           -5.36111188064386       -2.34424498668440       -3.01426344170784
H           -6.29418625958781       -4.31352367150850        0.04313168635958
H           -6.55462496046997       -2.78060510732911       -0.78835341817254
H           -6.17707196622361       -4.59778388608612       -2.41968050401238
H           -4.63084891314839       -4.98117342301440       -1.66491820392293
C            2.15667327983507        5.69978715693605       -1.89983316311536
O            1.85229476764785        6.49263336014762        0.81319182103702
O            3.03515978799073       -0.56153361472840       -5.57219306281667
C            4.12918006081707        0.11243525835615       -6.15736844534332
H            5.08628520035936       -0.20161511738399       -5.73745472781210
H            4.10354377202223       -0.16744834573676       -7.21088518186275
H            4.02207666220159        1.19645009924282       -6.07718842046017
C            3.19565711304697        6.64378893441131        1.22825081612296
H            3.89366886288699        6.34704552858601        0.43893387887539
H            3.32513216793560        7.70139514050135        1.44777144860807
H            3.40497519899184        6.05606993004485        2.12769568904964
C            0.80928476670348        4.81960275043808        2.86882841224461
C            4.62222984087142        0.61133836238213       -3.22771162280191
C            0.41581095950433       -1.05671672136397       -5.51195399376388
H            0.60244697253358       -0.48105273286328       -6.41665027262328
H           -0.65586872859680       -1.13482494557006       -5.35052027034336
H            0.82656463022672       -2.05105133032779       -5.67626929187402
H            4.96285707930745        1.37411752302267       -3.92413469984806
H            5.14858483462677       -0.31638164141026       -3.44352106760891
H            4.89832751985475        0.93457394288836       -2.22661896440058
H            3.22301730697744        5.52179368598253       -2.04194177176577
H            2.01869629744756        6.73510202944332       -1.59931548369811
H            1.65920669334449        5.53270082125194       -2.85217792780669
H            0.76559471405981        5.90493132877117        2.90538381103005
H            1.65486469926508        4.48711888557213        3.47170108842302
H           -0.09654940787916        4.40928180559935        3.30899059739734
C           -4.19779763776626        3.40406657576015       -3.01082588117646
C           -3.36191021335266        2.18599634590587       -3.43922465346266
C           -3.85327151070398        3.23345218003285       -1.52127651270993
H           -5.26094658328826        3.29160570817835       -3.22177751863724
H           -3.83465319970140        4.34204421003578       -3.42918436714692
C           -2.02622149243432        2.52053971080453       -2.77682411411196
C           -3.92553222768527        1.12194471369877       -2.49852462629027
H           -3.33295154828968        1.93508421551468       -4.49565142943282
C           -2.32950408328352        3.16739899254222       -1.60040825636665
C           -4.22878454432897        1.76516787667078       -1.31796825349116
H           -4.27324738743607        3.94573087624292       -0.81715907634162
H           -1.08718085834712        2.54506498309698       -3.31139431059740
H           -4.32473356826326        0.18381334251921       -2.85628845550914
H           -1.67455722730928        3.79390167353867       -1.00995933615997
H           -4.91116651396644        1.43360346795748       -0.54721835736057
