  123
       -173.58317547
 P         -0.7422965684        1.6046600427        1.0736104996
 P          0.3437035211       -0.6541743343       -1.4765379163
 Fe         0.6084635085       -1.6302367234        1.8338085621
 C          2.2502063420       -1.9345699252        0.5433469706
 C         -1.3908309648       -1.0435882291        2.0870447286
 C          0.9830507985       -1.8356308251       -0.1974187701
 C         -0.5198127726        0.1233383133        2.1225199723
 C          0.4195330550       -0.0480291943        3.2129435484
 C          0.1354463330       -2.9195010075        0.2680605767
 C          0.1495579096       -1.3210357111        3.8507574525
 C          0.8288503814       -3.6543161311        1.3025576478
 C         -0.9695362027       -1.9351305537        3.1643425079
 C          2.1262132000       -3.0454401645        1.4795444480
 Rh        -0.8548674491        1.3847560513       -1.2599316094
 H         -0.8656467762       -3.1398342585       -0.0990992776
 H          0.4498035541       -4.5297910690        1.8332073399
 H          2.9049459710       -3.3976623629        2.1573296154
 H          1.1543509309        0.6911570325        3.5357945866
 H          0.6713284598       -1.7278465449        4.7192925299
 H         -1.4033866939       -2.9058333311        3.4046753636
 C          3.5795935193       -1.2863939799        0.1829441980
 C          4.3211222873       -0.6386047693        1.3297523362
 C          3.8222019864       -0.5814929173        2.6214234032
 C          5.5538224269       -0.0593928725        1.0738158570
 C          4.5290787193        0.0454063632        3.6259183596
 H          2.8698284344       -1.0247306642        2.8425253295
 C          6.2651851511        0.5668953020        2.0757831769
 H          5.9519201215       -0.1068387507        0.0746339396
 C          5.7514754364        0.6214014492        3.3537427142
 H          4.1257804206        0.0845082316        4.6244322210
 H          7.2228850285        1.0113427898        1.8600609209
 H          6.3056322768        1.1098390132        4.1385807259
 C         -2.5514688157       -1.2017414234        1.1143141421
 C         -3.1603183750       -2.5839306210        1.0841759147
 C         -3.2710987806       -3.2637040540       -0.1195305686
 C         -3.6520502907       -3.1884434287        2.2291387302
 C         -3.8331053663       -4.5208089283       -0.1746478067
 H         -2.9141590935       -2.8011501266       -1.0219259853
 C         -4.2164012136       -4.4461291724        2.1776947782
 H         -3.5890382335       -2.6706730054        3.1697730960
 C         -4.3047974811       -5.1151476904        0.9757232860
 H         -3.9056325782       -5.0370295803       -1.1177734724
 H         -4.5898783581       -4.9058016405        3.0780015931
 H         -4.7457504701       -6.0977903978        0.9350160885
 H          3.3630951532       -0.4879905299       -0.5319806220
 N          4.4833915136       -2.2358988142       -0.5421149371
 C          5.0374168821       -3.3402698795        0.2769005885
 H          5.3936747339       -2.9625412184        1.2326093266
 H          4.2801988003       -4.1004265621        0.4526576137
 H          5.8741587854       -3.8002988481       -0.2443561355
 C          3.9338203043       -2.6526625440       -1.8335624194
 H          3.7424048851       -1.7822044630       -2.4549380979
 H          4.6446540965       -3.2915128552       -2.3536205294
 H          3.0061047514       -3.2029463948       -1.6927143671
 H         -2.1297434505       -1.0155791151        0.1172872244
 N         -3.5735867615       -0.1285535383        1.3002298744
 C         -4.0890616200        0.0083498315        2.6824219044
 H         -4.7286581907       -0.8324479868        2.9379842976
 H         -3.2648211875        0.0612100637        3.3901195891
 H         -4.6744899445        0.9207382164        2.7701077328
 C         -4.6241332138       -0.2145816784        0.2790303021
 H         -5.2741288359        0.6562478748        0.3338082438
 H         -4.1872056216       -0.2605462981       -0.7156827806
 H         -5.2277601464       -1.1066521185        0.4335103347
 C         -0.7856478199       -1.6855557553       -2.4531929123
 C         -2.4339598474       -3.3701041649       -3.8965402485
 C         -1.1579342862       -3.7737671839       -3.5617595962
 C         -0.3356112659       -2.9288748525       -2.8387369619
 C         -2.0630550259       -1.2875573904       -2.7826455657
 C         -2.8873219155       -2.1265368089       -3.5077641523
 H         -3.0761724575       -4.0258747159       -4.4612466503
 H         -0.8025419437       -4.7459405804       -3.8610684941
 H          0.6582034124       -3.2417434910       -2.5602031365
 H         -2.4239981130       -0.3241234763       -2.4697746733
 H         -3.8844877710       -1.8103900324       -3.7666547785
 C          1.6872380566       -0.1145799462       -2.5516456973
 C          3.7272530742        0.7647646070       -4.1905592033
 C          3.5409165839        1.3425170671       -2.9514223717
 C          2.5156457794        0.9024653744       -2.1357218535
 C          1.8670958787       -0.6851509654       -3.7921306981
 C          2.8889075187       -0.2467105274       -4.6140352083
 H          4.5247018273        1.1065013340       -4.8297648974
 H          4.1891800709        2.1371240410       -2.6207506984
 H          2.3447069381        1.3646113288       -1.1790367156
 H          1.2039129044       -1.4667304356       -4.1212109619
 H          3.0295293974       -0.6939014755       -5.5842437460
 C          0.8162374725        2.5015256543        0.9523759031
 C          3.2027178493        3.8603159187        0.7049492993
 C          3.2019555695        2.5018588742        0.9418886666
 C          2.0052074008        1.8202073753        1.0585187957
 C          0.8116367254        3.8589013952        0.7185668888
 C          2.0076396434        4.5412447747        0.5918272546
 H          4.1362631830        4.3907422927        0.6131474844
 H          4.1328899917        1.9726631209        1.0444310059
 H          1.9911075299        0.7552260431        1.2152141098
 H         -0.1272521010        4.3820626970        0.6406088230
 H          2.0056700555        5.6032728775        0.4098559206
 C         -1.9019834254        2.6624463595        1.9557241099
 C         -3.6056813763        4.2841952386        3.3960953525
 C         -2.3164274365        4.0713774977        3.8409140122
 C         -1.4640089644        3.2558793541        3.1178926264
 C         -3.1899800972        2.8661944689        1.5164367677
 C         -4.0446385940        3.6811699811        2.2347118951
 H         -4.2708620409        4.9196587146        3.9574665396
 H         -1.9737490002        4.5387702651        4.7492974196
 H         -0.4547831228        3.0778526446        3.4549826864
 H         -3.5280890024        2.3742836866        0.6210365289
 H         -5.0526282652        3.8423817681        1.8896225716
 C         -1.9795505174        3.6883945838       -3.8534900542
 C         -0.9986107014        3.8248091313       -2.6082948604
 C         -2.2711678350        2.1597596251       -3.5211090862
 H         -1.4785245324        3.8326200787       -4.8149544229
 H         -2.8664225569        4.3236927845       -3.7755733118
 C         -1.9384196980        3.3027852282       -1.4847557145
 C         -0.0442196082        2.6340564613       -2.9050403869
 H         -0.5305781364        4.8117594122       -2.4492722432
 C         -2.7085084222        2.3026325977       -2.0323818005
 C         -0.8068085716        1.6308916771       -3.4543417657
 H         -2.9636210139        1.6291221810       -4.1974579292
 H         -2.0682196609        3.7575799072       -0.5013897455
 H          1.0450741781        2.6591070664       -2.8432395758
 H         -3.5612042573        1.8087919265       -1.5614931601
 H         -0.4314834421        0.7103198166       -3.9068572835
