123
 energy: -173.646032506346 gnorm: 0.000394129414 xtb: 6.6.1 (8d0f1dd)
P           12.52733534451252        2.51269462509138        8.16894514769204
P           12.65737118276197        5.14506313208659        5.84481686634788
Fe          13.54543878273895        2.00853410691388        5.06780096566648
C           14.73681849989625        3.54379429511114        4.74370344717416
C           12.13900955282927        0.82570958675356        5.78407701052628
C           13.37256070086527        3.96307283924834        4.72081584312180
C           12.93191790756161        1.35514619538731        6.85508074286036
C           14.28139400526354        0.98026016358845        6.61700497379381
C           12.71162701389508        3.22344648409773        3.71240311203485
C           14.32725516292065        0.21179329560303        5.44838618943107
C           13.65353857153301        2.37051867091130        3.11293251793036
C           13.01773029757215        0.10499143948487        4.94429446071389
C           14.90226303250039        2.56885611284986        3.74083972753572
Rh          12.87337892500169        4.79408885703883        8.10319106444369
H           11.67755547664154        3.28693007445604        3.45236342006145
H           13.44788884780174        1.66740834420814        2.33229682374962
H           15.79474776113523        2.01635190140183        3.53641423033002
H           15.13064245347324        1.20908808692637        7.22443587202543
H           15.20913303856327       -0.19509159083891        4.99964012656040
H           12.77347792269397       -0.37986050227113        4.02536448919862
C           15.67462158085875        3.91226844936837        5.84368073299003
C           17.04301582872142        3.28897051345154        5.67162769704952
C           17.74771606108866        3.39452635639081        4.47676019553119
C           17.63252484364237        2.60194509640225        6.72510532620678
C           19.00332574557254        2.82914611259573        4.34356346291724
H           17.31482255846346        3.91571954104897        3.63784566600317
C           18.88682280533035        2.03220442051863        6.59389288948102
H           17.11195426057381        2.50541955550855        7.66538333749097
C           19.57796391813905        2.14495173615700        5.40090522808439
H           19.53411775735787        2.92286383255052        3.40825400270091
H           19.32368822769148        1.49975872259335        7.42531484533518
H           20.55644750591524        1.70276891986591        5.29523420212236
C           10.70210160624379        1.15062338700862        5.53380736546079
C           10.30953987057451        1.12695386305453        4.06825253994827
C           10.46667880537820        0.02427287886455        3.23704950606633
C            9.63591705271397        2.23232912681847        3.55851118426294
C           10.02426583656070        0.05633141535910        1.92469139188023
H           10.91210592565407       -0.88493812365665        3.60251334141075
C            9.19098091747268        2.26859867541781        2.24992739875715
H            9.44896490991802        3.07324685709797        4.20598247998562
C            9.39732039578482        1.18087737900531        1.41974648898764
H           10.16338898288965       -0.81093829377616        1.29679269665557
H            8.67758326994119        3.14508019649173        1.88397906766047
H            9.05600293880578        1.20176444790199        0.39641952806770
H           15.20597572208118        3.48815668346040        6.74365198127503
N           15.65147790450496        5.36588839422186        6.06941527996916
C           16.38187578560602        6.11747549948665        5.06358659559778
H           16.08181186966845        5.79321860535702        4.07215480564853
H           16.13506173816822        7.17376411376379        5.16837457478629
H           17.46886833164646        6.00168754917580        5.16228074986726
C           16.15946832823069        5.70187424635308        7.38784584534712
H           17.19558090486090        5.36701080526233        7.53868095154109
H           16.13150050813755        6.78274657153689        7.51135332521896
H           15.51916967228948        5.24105694133673        8.14448316097967
H           10.58521042051466        2.18654648989823        5.88654186599308
N            9.80055606015186        0.34663531629867        6.36373822045096
C            8.44366998259662        0.84358135331496        6.35403333356033
H            7.94354563367137        0.71800531725540        5.38358118236111
H            7.87329150026280        0.30423636869661        7.10897790311715
H            8.44679128551894        1.90124562599724        6.61241312089176
C            9.84657474327297       -1.07939083851540        6.12453161428161
H            9.36121733579823       -1.58013641425457        6.96221059224178
H            9.32753973028620       -1.38002444529578        5.20503203521059
H           10.88328034149245       -1.40592976862167        6.07797851357229
C           10.88255930827767        5.13769691450658        5.37966635414470
C            8.15538298316151        5.33163890601085        4.84345726578402
C            9.08469838094486        5.70728722326933        3.88480826295149
C           10.43936921508541        5.61368225155843        4.14798580976330
C            9.94314921031453        4.75572929542786        6.32851973246758
C            8.58724179369391        4.84718755522249        6.06714115787929
H            7.09985801800981        5.41616891159929        4.63636745904108
H            8.75101983628109        6.08236963102478        2.92929667136861
H           11.15262269108623        5.91760032726046        3.39660111706336
H           10.29601359388411        4.38466332589242        7.28255064124078
H            7.87002038979423        4.54921409744912        6.81766335535409
C           13.04432600360624        6.72860693451901        4.98984071298955
C           13.46682381360620        9.11443641363057        3.60208769169910
C           12.83314704748901        9.12661862640539        4.83289847038251
C           12.61391684725332        7.94278155319189        5.51440453625929
C           13.64298992383297        6.72356894829481        3.73412468099901
C           13.85601871040166        7.90665724715958        3.04913201240444
H           13.63896666024794       10.03751843792021        3.07056379778260
H           12.49771346240463       10.05975566870392        5.26001911755514
H           12.07866933693139        7.97133225925298        6.44977520549351
H           13.93237076887154        5.78920541730022        3.27884123415953
H           14.32287098502539        7.88388486323035        2.07583954743855
C           13.63001464507779        1.85843886888902        9.49920137540106
C           15.45978418103039        0.98300814677602       11.42330448871020
C           15.87293929962222        1.83272337147301       10.41028504429154
C           14.96070698695473        2.26993523544191        9.46924018982337
C           13.22354532004361        1.02815928305278       10.53626289945073
C           14.13360014342025        0.59407468365368       11.48656322270372
H           16.16474051830848        0.63789068585990       12.16331630984418
H           16.90160644851407        2.15975801278696       10.36184047901220
H           15.27322790268645        2.96115037708959        8.69615203266246
H           12.19458482565810        0.71434252122003       10.61700076990610
H           13.79904465378550       -0.05280029885598       12.28316981350662
C           10.91256235383094        1.91312497189457        8.77490161021150
C            8.59919512184702        0.90555232310316        9.94943916339791
C            9.55151715264881        0.04062485993026        9.43745271770687
C           10.69163339559405        0.53766079686038        8.83113516813845
C            9.95213298483470        2.77311215327352        9.29292737418615
C            8.79585443149644        2.27347985863600        9.86618132086753
H            7.70826106456536        0.51586173388155       10.41798182168668
H            9.40650737221956       -1.02652575552526        9.51230932044978
H           11.43405424431507       -0.13935929947634        8.43757511409198
H           10.10363177853709        3.84378886798792        9.26506273715176
H            8.05540365325374        2.95211797029465       10.26264323669477
C           12.70461657243853        7.10590515333724       10.89156373169720
C           13.86121782448800        6.64277267086814        9.98957813033903
C           11.67267072310880        6.21092053988202       10.18601043441709
H           12.48621927630708        8.16934931649385       10.79774806538130
H           12.84824813943563        6.84901375286808       11.94068750906778
C           13.72937626159013        5.13124364462857       10.12798962127022
C           13.25826484905880        6.87236747635809        8.60607598260784
H           14.84529280885272        7.06506282889450       10.17030367592526
C           12.38774348858356        4.85993773357046       10.25081173555375
C           11.90479550667177        6.61748122928472        8.73401382128096
H           10.64788147263969        6.24059283834759       10.54576623884034
H           14.54411684910151        4.48854820433526       10.42658131055266
H           13.74533919012174        7.46998005394266        7.85127296295811
H           11.95719371587505        3.97273913367097       10.69239715443906
H           11.09765662908399        6.94519305755593        8.09111140336896
