  99
       -136.97824587
 P          1.1824457991        1.3041766035       -0.0171247289
 C          2.6114285635        1.8122645479       -0.9954171310
 C          2.7671512172        3.1169174042       -1.4066113793
 C          3.8701568906        3.4771330509       -2.1582782783
 C          4.8150237898        2.5281439081       -2.4929409327
 C          4.6618535999        1.2224804988       -2.0730411011
 C          3.5580376436        0.8687154297       -1.3194919677
 C          0.2726327615        2.7662001916        0.5052249198
 C          0.2425819318        3.0631291827        1.8490606299
 C         -0.4195862168        4.1931998474        2.2931162476
 C         -1.0472867448        5.0219939177        1.3854836753
 C         -1.0154468255        4.7225057418        0.0385374546
 C         -0.3543003807        3.5908363019       -0.4013976502
 P         -1.2566103740       -0.5403344650        0.7555069758
 C         -0.2888464104       -1.0131931783        2.2892457434
 C         -1.0851647936       -0.8076352583        3.5642351391
 C          1.8147796665        0.4526683869        1.4751334067
 C          1.1133072857       -0.4470635311        2.3879757893
 C          2.0427590189       -0.7806178687        3.4636066431
 C          3.2936562617       -0.0947745039        3.2195863927
 C          3.1508138162        0.6671957609        1.9967809020
 H          2.0311209601        3.8532380740       -1.1328705053
 H          3.4226895988       -0.1433873088       -0.9801343933
 H          0.7404782114        2.4110003604        2.5478142795
 H         -0.3243492889        3.3523249399       -1.4504054731
 H         -0.1728047884       -2.0939151422        2.1301784130
 H         -2.1336709417       -1.0807792753        3.4299194728
 H         -1.0319404199        0.2317064266        3.8882303081
 H         -0.6878737131       -1.4081175029        4.3853612034
 Rh         0.0196427765       -0.3484203105       -1.2183857918
 H          3.9024614187        1.3235555141        1.5547857852
 C         -4.0023232868        3.1109326056        0.6558686907
 C         -3.6014132323        2.4917209573       -0.5175121672
 C         -2.7562831412        1.3936036612       -0.4297651031
 C         -2.3031719089        0.9398160955        0.7888350369
 C         -2.7144605385        1.5658329916        1.9425575306
 C         -3.5603839815        2.6659242262        1.8923410314
 H         -2.4579159288        0.8874983313       -1.3307833011
 H         -2.3945770922        1.2053368102        2.8999371737
 C         -3.9966489627       -4.0813965887       -0.0745012545
 C         -4.5564229513       -2.8433321282        0.2065920345
 C         -3.7069312541       -1.7745609569        0.4616794734
 C         -2.3423951986       -1.9478372454        0.4447324183
 C         -1.8010958976       -3.1833929643        0.1796819094
 C         -2.6224332371       -4.2722674761       -0.0813775088
 H         -4.1185773572       -0.8013747522        0.6666400323
 H         -0.7327649894       -3.3017755122        0.1550036906
 Fe         2.8308023499       -1.3766428210        1.6191675454
 C          2.7288399578       -2.4946132878       -0.1548032217
 C          2.1475691350       -3.2432819976        0.9437517518
 C          3.1672953096       -3.4164599698        1.9603484034
 C          4.3814693448       -2.7772873720        1.4905911417
 C          4.1121798389       -2.2115736383        0.1824818228
 H          2.2340405167       -2.2577079550       -1.0984188507
 H          3.0540266983       -3.9687084289        2.8953629418
 H          5.3422516019       -2.7662381964        2.0091662726
 H          4.8526942641       -1.7362226180       -0.4637427602
 H          5.6751256290        2.8079862391       -3.0789371787
 H         -1.5631175990        5.9036393354        1.7287423456
 H         -4.6691171490        3.9530505958        0.6067427126
 H         -4.6431360692       -4.9122863678       -0.2937579347
 C         -4.0884365241        2.9648794296       -1.8414346880
 H         -4.3726951244        4.0169136752       -1.8044457067
 H         -3.3157016543        2.8579524037       -2.6035195513
 H         -4.9591075675        2.3916534564       -2.1611097422
 C         -4.0144462549        3.3308307422        3.1441655343
 H         -4.1726597766        4.3981826396        2.9867003662
 H         -4.9526119330        2.8989544479        3.4936980380
 H         -3.2758252067        3.2203553092        3.9387316240
 C         -6.0326704426       -2.6546164428        0.1895760078
 H         -6.5465553102       -3.5467207392        0.5489740501
 H         -6.3307825300       -1.8220349174        0.8275527613
 H         -6.3847694776       -2.4470722984       -0.8213133625
 C         -2.0396636835       -5.6014144072       -0.4109355520
 H         -2.6710258181       -6.4096325865       -0.0405817370
 H         -1.9362129934       -5.7217863478       -1.4897093624
 H         -1.0528136055       -5.7209998360        0.0372708193
 H          4.1775793924       -0.1228719378        3.8596245590
 H          1.8249812332       -1.4320699635        4.3111714308
 H          1.1504966335       -3.6824240184        0.9724760655
 H         -0.4428680512        4.4264042831        3.3447280934
 H         -1.5070076002        5.3686536637       -0.6698370140
 H          5.4008191865        0.4814216853       -2.3293608977
 H          3.9926314023        4.4980310612       -2.4806459512
 C         -0.6508081636       -0.9232352345       -4.7562353903
 C         -1.4005499294       -0.1031597763       -3.6175000382
 C          0.4876897787       -1.3846738621       -3.7445309547
 H         -0.2769336301       -0.2921319123       -5.5674275537
 H         -1.2419146557       -1.7553545873       -5.1489960344
 C         -1.5382964948       -1.2242332901       -2.5482988348
 C         -0.2192890423        0.7780613977       -3.1159175160
 H         -2.3253887168        0.4215505004       -3.9133726354
 C         -0.4027630066       -1.9957764750       -2.6212270780
 C          0.9171353044        0.0089297165       -3.1986842581
 H          1.2858061770       -2.0276486432       -4.1549356299
 H         -2.4324839544       -1.4532792687       -1.9649306512
 H         -0.2563741942        1.8480686128       -2.9055261442
 H         -0.2269307262       -2.9420690500       -2.1037086783
 H          1.9410374168        0.3590976829       -3.0556039912
