99
 energy: -137.025064529238 gnorm: 0.000324566428 xtb: 6.6.1 (8d0f1dd)
P            0.05363895724741        1.04471428717951       -0.70412986864314
C            1.16232675072305        0.58803424997994       -2.06717046629924
C            0.60169638833863        0.10437932844648       -3.24351249740636
C            1.41583235548647       -0.23135505045336       -4.31084368661708
C            2.78914309426389       -0.07545243769024       -4.20342156577685
C            3.35021109983106        0.39156001714314       -3.02397391433924
C            2.54125024978431        0.71231893620028       -1.94975285289418
C            0.71995572683334        2.63015605087875       -0.10904650496357
C            0.51205051554379        3.00051598960072        1.21757777884411
C            0.91709489467823        4.24540404346846        1.66291583160530
C            1.51991160297187        5.13502361454744        0.78760869157550
C            1.71113907952528        4.77921420987765       -0.53786285396724
C            1.30498991983907        3.53610716277059       -0.98884955416872
P           -2.64522814369383       -0.67173458178686       -0.16762685538881
C           -1.27534825375106       -1.90717531782353        0.11378372010849
C           -1.70571667447530       -3.25718871083849        0.67116100288783
C            0.50866950684889       -0.08678529062513        0.60688258562058
C           -0.22388676774081       -1.26654562693174        0.96215275347565
C            0.37311705687505       -1.80351624565600        2.12859736909078
C            1.48732178076361       -1.00338540318391        2.46546269665347
C            1.58554586716453        0.04341844437080        1.53111787858524
H           -0.48056456782727       -0.00506743668938       -3.30717983238482
H            2.96466215048197        1.06171870683379       -1.02011728332395
H            0.04219585941237        2.30513058599789        1.89948221385782
H            1.45108835829505        3.26166522330737       -2.02446211081526
H           -0.83540545732434       -2.05650454607386       -0.88310244287017
H           -0.83743811987250       -3.91181095701331        0.70871559258327
H           -2.46493214783555       -3.71732459195201        0.04339422576356
H           -2.09977442248919       -3.15598036672968        1.67782596810924
Rh          -2.10693870062824        1.17149936642992       -1.37174116268099
H            2.31766628916485        0.82875132218468        1.54144571636183
C           -3.61731370802384        0.76669634674891        4.05935095090350
C           -3.94777464194801       -0.54313252847494        3.73150770592583
C           -3.68318781694746       -1.00215318477698        2.44837251887230
C           -3.09869836069996       -0.15796380642139        1.51164417741907
C           -2.79278366443380        1.15496840766904        1.85698256568216
C           -3.04425884874197        1.63087664152196        3.13428781666685
H           -3.95211442048630       -2.01204992096643        2.17458347995851
H           -2.35768949878281        1.81315818298324        1.10177707795055
C           -6.08482396719697       -3.06319836311003       -1.99438726621710
C           -6.35690578783423       -2.24761686281443       -0.90385840597511
C           -5.31491652439281       -1.53641628399056       -0.32263820067751
C           -4.02268576061768       -1.65737251008105       -0.81625745522807
C           -3.77638995387926       -2.45899836810937       -1.92867453191941
C           -4.80324100483624       -3.17577250417948       -2.52285299204602
H           -5.51085145149423       -0.89042883693188        0.52181325309025
H           -2.77228806698816       -2.51867492939500       -2.32984430890976
Fe           1.68485731448746       -1.77872430916567        0.57908833807155
C            2.36663436384536       -3.70719571591949        0.56744096833408
C            3.45879163393805       -2.81260366044195        0.62303485580984
C            3.42100938383090       -2.00724457615072       -0.53332644602340
C            2.30999772700057       -2.40954479932791       -1.30901229001762
C            1.66106349347864       -3.45837528203981       -0.62924490647791
H            2.13629552528980       -4.46486570979913        1.29288942380999
H            4.14067766640743       -1.25784112715888       -0.79908523946595
H            2.03800671388366       -2.02890325040236       -2.27416444218695
H            0.80987794501608       -4.00670722166529       -0.98711265638092
H            3.42465271312655       -0.32390675850646       -5.03927226641314
H            1.83708465654075        6.10546870772874        1.13681454121610
H           -3.82056845062447        1.12456602655050        5.05837874673096
H           -6.89095942955368       -3.61972430956587       -2.44996665447101
C           -4.57312709820696       -1.43792225007708        4.75572092117777
H           -5.43725443085488       -0.95452629572506        5.20737787726299
H           -4.88906827291248       -2.37990380365498        4.31527011504137
H           -3.86104717161444       -1.65015223766353        5.55239831529220
C           -2.70461081178339        3.03763428090367        3.51834831172194
H           -3.56570631971109        3.52888039117867        3.96715024196655
H           -1.90321508967683        3.04073051111956        4.25637619675174
H           -2.38217528535046        3.61314090517235        2.65397263061587
C           -7.75405274472289       -2.12744280481108       -0.38083330745678
H           -7.76719439854160       -1.65085565457794        0.59598892962980
H           -8.35783505047641       -1.52899198261731       -1.06292035193297
H           -8.21926022780993       -3.10764149206768       -0.30201085941744
C           -4.55044251264490       -4.06089780068695       -3.70335569290321
H           -5.25197225580408       -3.83814986343655       -4.50496526813866
H           -3.53754814339603       -3.93789022537866       -4.07789662801427
H           -4.69068038146114       -5.10457204171971       -3.42437766736844
H            2.14672523772626       -1.16703390229430        3.29519371198200
H            0.05104907889574       -2.67003602773296        2.67188497962572
H            4.19757793417392       -2.76762152977583        1.40073651864682
H            0.76190575663183        4.52403329344386        2.69438066679174
H            2.17513505823684        5.47282799495011       -1.22259424828170
H            4.42088378260208        0.50330739828814       -2.94701900868472
H            0.98481527032704       -0.60795767764050       -5.22632960517744
C           -4.03731478228686        3.47740645461517       -3.33668065523070
C           -3.17417167758256        2.25572566885343       -3.69567868428479
C           -3.76067708610318        3.34791099739202       -1.82899249269288
H           -5.08885120252304        3.34966992993206       -3.59176531620536
H           -3.66257031833809        4.40741959097700       -3.76306719158138
C           -1.87107773080112        2.62292057544804       -2.98364323670762
C           -3.77302786975969        1.21093662536449       -2.75393567121644
H           -3.09555589553642        1.97970390464112       -4.74324762349649
C           -2.23237453315965        3.29271197381335       -1.83713820796848
C           -4.13665647545149        1.88280890603346       -1.60719415143381
H           -4.21773618224722        4.07424084559398       -1.16321675882634
H           -0.90966732610925        2.65015668989881       -3.47732086685259
H           -4.13113247671509        0.24374593584946       -3.08292511273464
H           -1.60768503543201        3.94034572406842       -1.23538398048040
H           -4.84058735939915        1.55355852295245       -0.85445776038156
