111
 energy: -156.222315468723 gnorm: 0.000333227023 xtb: 6.6.1 (8d0f1dd)
P            0.05671203980604        0.88125568319183       -0.66998999092835
P           -2.66189208622220       -0.72082483690099       -0.35184968266124
C           -1.47413904834378       -2.14254733913374       -0.14124671879921
C           -2.05109446406937       -3.47436971128860        0.32438467793326
C            0.40886069045036       -0.46045894664993        0.48030800026215
C           -0.35150638039208       -1.65257866646876        0.71488898580653
C            0.25839836218889       -2.34994940623426        1.78535285274190
C            1.40601388909284       -1.63220557144153        2.18702952919082
C            1.51519616388602       -0.48479267499412        1.38294596915911
H           -1.06260084445091       -2.29857866341034       -1.14998648556663
H           -1.24679921518406       -4.20621034211919        0.36238528289576
H           -2.80929589635302       -3.83014802333275       -0.36832516262633
H           -2.50372258611036       -3.40716921008456        1.30897762959909
Rh          -1.93821788715200        0.87059421912042       -1.79756738720656
H            2.27890288195462        0.26339341095752        1.46902365958964
C           -3.11072498250660        1.42465340056467        3.66667174952683
C           -2.91946208504483        0.04728502704228        3.69032192474284
C           -2.79344694739114       -0.63611071586360        2.48920919609236
C           -2.84685690234941        0.05130037322723        1.28263075727543
C           -3.03292445640677        1.43030018031807        1.28440401061751
C           -3.17195916881407        2.13120746489680        2.47349721862918
H           -2.64847851312677       -1.70453300459695        2.50215278243160
H           -3.05731125050333        1.96641517271586        0.33731942221423
C           -6.64040017588447       -2.75960876371826       -1.30419980702348
C           -6.56573655229538       -1.96418133224966       -0.16872259407377
C           -5.36094411528352       -1.34311490809745        0.13668921790954
C           -4.25429715316165       -1.52792897034534       -0.67961373551178
C           -4.35202411793880       -2.32277429393961       -1.81924202816587
C           -5.54492666327979       -2.94985220657089       -2.14023767395529
H           -5.28241518510252       -0.71878616557858        1.01573903142057
H           -3.48022400773431       -2.45604448789716       -2.44904984975567
Fe           1.52895192988119       -2.16099204524666        0.21445109179463
C            2.49896264692397       -3.95831028168858        0.12108786241112
C            3.41883025088865       -2.91337615929999       -0.11536035068606
C            2.99262819656171       -2.20728593467051       -1.25670143823423
C            1.80935735883829       -2.81809929155702       -1.73155831272864
C            1.50657391660198       -3.90026602091924       -0.88180009892538
H            2.55963269962007       -4.68642737745309        0.90820400399746
H            3.50807544509580       -1.38376326297958       -1.70907943518564
H            1.27039144723674       -2.54586889816443       -2.61867760583916
H            0.68925501138446       -4.58643225009151       -1.00023223658054
H           -3.20992143956766        1.95577434470291        4.60248181367400
H           -7.57456016366920       -3.24531129814210       -1.54638815533901
C           -2.85015005223143       -0.67647714435044        4.99887104977665
H           -3.77499835799095       -0.53808654999354        5.55673259906462
H           -2.68920172553388       -1.74102937727154        4.85196588135115
H           -2.03701025192734       -0.28238171004174        5.60644935885962
C           -3.39083006915961        3.61165749486191        2.46436848902927
H           -4.45891110663894        3.82942339579575        2.44826394421749
H           -2.96993818873647        4.07256999156708        3.35379758628042
H           -2.93808936536378        4.06447225880300        1.58537556063834
C           -7.76978160838029       -1.77233242654208        0.69921462698307
H           -7.49786754733430       -1.32598608468078        1.65206416478672
H           -8.48603353040400       -1.11655638191696        0.20454992005457
H           -8.26510378746499       -2.72325666521681        0.88268301785195
C           -5.66850463658364       -3.81568265436427       -3.35528269097762
H           -6.41944688611053       -3.41110762982521       -4.03230583960995
H           -4.72295558873313       -3.88758444214186       -3.88655717661986
H           -5.98644916580226       -4.81806669370665       -3.07373676376628
H            2.08132877449050       -1.91687040474252        2.97011069814773
H           -0.07771336261256       -3.27104112719079        2.22006933105260
H            4.29588675317219       -2.70163992241370        0.46608532876178
C            0.29407112605312        2.33456013343899        0.41533381569544
C            0.01024930005715        2.18829830622290        1.75523567866714
C            0.63141712289031        3.62179008772264       -0.08995147350281
C            0.08888388832659        3.26990541581058        2.63986192103838
H           -0.27241870598129        1.22308312459921        2.14813833795879
C            0.71485029987986        4.71496075751378        0.81605335758954
C            0.89334868356408        3.86933842333409       -1.45285115181691
C            0.43949161609627        4.50867121880313        2.18363584896546
H           -0.12890419628717        3.10831780311706        3.68447728766019
C            1.06551296321825        5.99133463806747        0.32667451610448
C            1.22815063654962        5.11794551934521       -1.89846247308590
H            0.82970252157913        3.04849819290581       -2.15151657158947
H            0.50716578195071        5.34891855676608        2.85840258619442
C            1.31945802598986        6.19139844525906       -1.00063903656670
H            1.12933035912668        6.81000085689187        1.02805350030037
H            1.42488400180054        5.28306381133887       -2.94709238243067
H            1.58914260359484        7.17016211514513       -1.36607518754949
C            1.57500931535922        0.78163358337106       -1.69124113257585
C            2.74852200318464        1.30210892114712       -1.19924765079401
C            1.54556398481610        0.19770073040750       -2.98488202168199
C            3.91879707798042        1.29878121380252       -1.96631391032922
H            2.76771679485312        1.75183414105158       -0.21829598861592
C            2.72910276087757        0.22886365414254       -3.77355193551739
C            0.40218842353258       -0.42548645236438       -3.52944814575581
C            3.90538441220680        0.79191302914530       -3.23644925214721
H            4.82361663883184        1.71511755520507       -1.55125688706055
C            2.70595906256143       -0.31684024351057       -5.07493840419973
C            0.40882404126757       -0.94314297427640       -4.79501876595717
H           -0.50030918595076       -0.51949157668480       -2.91220632391489
H            4.79680666513442        0.80742822680627       -3.84531060037573
C            1.57024010323164       -0.88225443168066       -5.58058326184210
H            3.61080618349668       -0.28255394004608       -5.66281034755276
H           -0.47586849407715       -1.41662683946523       -5.19437336146831
H            1.55999974655172       -1.29536898125394       -6.57719801263827
C           -3.65591655221014        2.86484158725395       -4.26459506200682
C           -2.69103526648653        1.67091177141373       -4.35823185179081
C           -3.59980869276812        2.90923206782567       -2.72821811437619
H           -4.65090127738416        2.64475141434407       -4.65035105815340
H           -3.26760775207675        3.76824311933502       -4.73395642041887
C           -1.52870407339404        2.18849669948428       -3.51076307039436
C           -3.36863883181780        0.69171719958328       -3.40089301804179
H           -2.44062708310378        1.29445546352850       -5.34579642430034
C           -2.08791616639368        2.94687563803006       -2.50980090597820
C           -3.93258220035554        1.45545711796143       -2.39780531765530
H           -4.18382532407260        3.67128001887094       -2.21999419309800
H           -0.51099779122108        2.21907580250102       -3.87173431000212
H           -3.65421393035921       -0.31312083655231       -3.68220660803600
H           -1.59578004388327        3.68119697090413       -1.88665904845815
H           -4.74106423547383        1.16449872118869       -1.74009174450454
