119
 energy: -164.164310864546 gnorm: 0.000640833928 xtb: 6.6.1 (8d0f1dd)
P           -0.00054888977708        1.11086493092338       -0.73938023694061
C            1.03222687385560        0.63678811412866       -2.14711096982863
C            0.41237954694400        0.06421931303720       -3.25117829295927
C            1.15044315423889       -0.30431888456957       -4.35674037128072
C            2.54525284533552       -0.09038503346667       -4.36982339501624
C            3.18619265585099        0.44867038129828       -3.24260830625060
C            2.40719170333885        0.79907191808968       -2.14740195541644
C            0.67426316664602        2.70294547332638       -0.18230594288205
C            0.50864661843666        3.08748979414740        1.14447223913464
C            0.91384268015697        4.33832246886355        1.57866238046755
C            1.47963863736282        5.22779824957855        0.65614772543913
C            1.60837676005202        4.87470729498707       -0.69130798312820
C            1.19903096504275        3.61127770259996       -1.09210298440328
P           -2.65558841295866       -0.66335226747389       -0.15893552957465
C           -1.25506131514664       -1.86331069320003        0.11751179186829
C           -1.65046324627348       -3.21555159645750        0.69480767198762
C            0.50118640391283       -0.00681197340898        0.56717557888131
C           -0.20535604327695       -1.19429254957611        0.94602338724344
C            0.42371515816380       -1.71416838305101        2.10344708177779
C            1.53298881431610       -0.89537788584204        2.41041283930020
C            1.59522263564598        0.14542569274748        1.46596171843018
H           -0.66774659491135       -0.08517365326653       -3.23602984011061
H            2.88227509800007        1.20050100731666       -1.26454119500079
H            0.06983859796911        2.39550784667515        1.85040946050580
H            1.29318733358991        3.33263877929945       -2.13278021485330
H           -0.82295014243089       -2.01220439867366       -0.88254145613766
H           -0.76731777514177       -3.84994634474774        0.73371568053981
H           -2.40400325675692       -3.70065616313859        0.07908266447542
H           -2.03905989538647       -3.10932296441960        1.70328194135205
Rh          -2.17572372254623        1.19429005027378       -1.36330030748992
H            2.31606157698450        0.94073335441519        1.45034770748128
C           -3.65947298498996        0.67779703817872        4.09078465335676
C           -3.99082808871083       -0.62289092338148        3.72956837707956
C           -3.71867684288124       -1.05136713085531        2.43761383008774
C           -3.12508030637717       -0.18637040225598        1.52607231529622
C           -2.81667121009549        1.11672594613830        1.90428323252262
C           -3.07749457749468        1.56229234523213        3.19062830204531
H           -3.98760002340347       -2.05377434744077        2.13718079728225
H           -2.37174306335197        1.78942261099617        1.16868441790324
C           -6.02633888767848       -3.12254589078034       -2.02677256126287
C           -6.32861924254989       -2.29978585015600       -0.95006146007768
C           -5.30572352163411       -1.57208252486154       -0.35510983901414
C           -4.00236829084199       -1.68321523748682       -0.82074421114826
C           -3.72593148684014       -2.49226293386780       -1.92078177137583
C           -4.73295791378111       -3.22560768513610       -2.52812966326244
H           -5.52569410757156       -0.92012344751435        0.47879864582288
H           -2.71403029639971       -2.54504641534479       -2.30214222286247
Fe           1.70136538618889       -1.68144535694624        0.52566674558717
C            2.42141187280714       -3.59629838470005        0.50991702359435
C            3.49538136085608       -2.67856247686032        0.53240121344639
C            3.41018785029684       -1.88192019507080       -0.62774697515446
C            2.29046010050993       -2.31382842831823       -1.37363801359293
C            1.68164616494276       -3.37112342002626       -0.67058300983361
H            2.22500320821297       -4.35309304729222        1.24615698618808
H            4.10281977829902       -1.11554596824229       -0.91308667629533
H            1.98506957513834       -1.94191128155981       -2.33199569265326
H            0.83341960454768       -3.93966745836758       -1.00283839604833
H           -3.86887428620697        1.01234473594621        5.09673544785346
H           -6.81676968355335       -3.69239106755099       -2.49339649827011
C           -4.62626329807459       -1.54080586972739        4.72712943103630
H           -5.50855833656256       -1.07651771149189        5.16373886736012
H           -4.91757079807425       -2.48104885794831        4.26636796613801
H           -3.93074360434424       -1.75331648858029        5.53810765850371
C           -2.74632610130969        2.96128643446379        3.60870623567448
H           -3.63949886095030        3.47123617635079        3.96566848394626
H           -2.02700595061082        2.95015159800209        4.42630960871914
H           -2.32707960704301        3.52741559523468        2.78091453287436
C           -7.73723507694339       -2.18270783125752       -0.45746088952823
H           -7.76609280261498       -1.78688776571617        0.55443416921144
H           -8.30179623955097       -1.50953083560359       -1.10279735022351
H           -8.23300959731556       -3.15032413215935       -0.47389609157059
C           -4.44770487704515       -4.11729677061936       -3.69649480480961
H           -5.11872024987628       -3.88974007683607       -4.52268930720834
H           -3.42139530023039       -4.00459204468398       -4.03605626643441
H           -4.60790074743243       -5.15871242500427       -3.42030161224824
H            2.21205126403139       -1.04303063714578        3.22735977940903
H            0.12593169403421       -2.58086620110813        2.66016599805182
H            4.25254304226624       -2.61289303642434        1.29088381268724
O            1.83395471051481        6.48570741753658        1.09715279471453
O            3.13189238039432       -0.51621274990505       -5.52211758395400
C            0.50098273971263       -0.92686558138267       -5.55246325892551
H            0.70893810661205       -0.33714583985528       -6.44346119319075
H            0.90954706162622       -1.92078681938763       -5.72555586935978
H           -0.57443298346341       -0.99967587114070       -5.41405184620313
C            4.67549004704168        0.61287355227412       -3.11867439684704
H            5.18343401392019       -0.32936899206971       -3.31438164828264
H            5.06381137283257        1.36509612084886       -3.80141336321069
H            4.92300727001934        0.92879588826289       -2.10769976095694
C            4.28467309633960        0.09686655627619       -6.05800872081027
H            5.20407610737617       -0.26208865435640       -5.59238002843989
H            4.29359510591517       -0.18952781676451       -7.11006163239037
H            4.22946013755880        1.18555894553106       -5.98887989468530
C            3.22142219491555        6.69913692487182        1.26959970610533
H            3.77690513103441        6.57818701204515        0.33589261016763
H            3.32362829695058        7.72369055266169        1.62139844501688
H            3.63748892048065        6.01476298352368        2.01717640320273
C            2.14128116608733        5.84542342181511       -1.70110466999630
H            1.97202026273098        6.86720507992967       -1.37030361442076
H            3.21183427064337        5.69987087492150       -1.84918307441938
H            1.65052360510100        5.69798043886320       -2.66062169992287
C            0.72460425600807        4.75642617492766        3.00367805124694
H           -0.12008642410286        5.44049145800525        3.07842430940670
H            0.53547781849308        3.89357414720515        3.63646903982137
H            1.59900895593772        5.28695067399145        3.37146356782729
C           -4.16324632069678        3.46568706414177       -3.30827143906199
C           -3.29883194019902        2.24669833597118       -3.67263545421025
C           -3.85488174719683        3.35350116119464       -1.80543320900876
H           -5.21885851472671        3.32776118003085       -3.54047529940290
H           -3.80432370335236        4.39414827454088       -3.75147305450420
C           -1.98476838619204        2.63002838762494       -2.99069463592394
C           -3.87072963603838        1.20685658919819       -2.70855440175137
H           -3.23907311315016        1.96049741168360       -4.71880014405959
C           -2.32660481559693        3.30894268667933       -1.84369300156978
C           -4.21556914949408        1.88811280194551       -1.56118248596019
H           -4.30348369486976        4.08341256762103       -1.13787222659956
H           -1.03217786526598        2.64895698167230       -3.50134316344670
H           -4.23192686300639        0.23571464550685       -3.02199308344530
H           -1.69379805538058        3.96450970692062       -1.25947556716914
H           -4.90176065677046        1.56233402366626       -0.79088401172234
