  103
       -126.01654069
 C         -3.6570110434        2.3335788001       -1.3151546868
 C         -3.7224483561        0.9812669923       -1.8314435536
 C         -4.6841900060        0.2446492873       -1.0352949609
 C         -5.2151135409        1.1444823716       -0.0319981261
 C         -4.5747131281        2.4334430949       -0.1990101471
 H         -3.1130744093        3.1636798762       -1.7676533348
 H         -3.2172226273        0.6153655170       -2.7271038664
 H         -5.0097122894       -0.7831862528       -1.2063311783
 H         -5.9994035413        0.9078470668        0.6893123627
 H         -4.7920769049        3.3365519121        0.3743626045
 Fe        -3.1120033131        0.9536553572        0.1906368339
 C         -2.6023321667        1.5700496872        2.1156807598
 C         -1.3714531847        1.2111643566        1.4074399742
 C         -1.4921201685       -0.1953714285        1.0173120821
 C         -2.7859313297       -0.6709187337        1.4791241519
 C         -3.4592957450        0.4066984136        2.1713220427
 H         -2.7827478284        2.5170051487        2.6275757128
 H         -3.1683591208       -1.6877649563        1.4069596577
 H         -4.4185019071        0.3392438021        2.6889603366
 C         -0.0954401387        2.0006951806        1.6463471842
 H         -0.3891343363        3.0571583109        1.6690562203
 P         -0.1544046351       -1.2728054381        0.3499961272
 C          0.4310741071        1.6544662621        3.0325577507
 H          0.9451853027        0.6974889158        3.0296788091
 H          1.0991680225        2.4136501549        3.4367938756
 H         -0.3917433251        1.5660385944        3.7449968772
 P          1.1757838583        1.9714503776        0.2443783970
 Rh         1.6785414015       -0.1805727594       -0.6406936298
 C          0.6142772519       -2.2648414879        1.7430411827
 C          2.0446677848       -1.8238613738        2.1040760969
 C         -0.3109496582       -2.2271467479        2.9691604113
 H          0.6686574571       -3.2947470551        1.3718288156
 C          2.6114828686       -2.6248174706        3.2930485804
 H          2.0467901328       -0.7576446012        2.3406206927
 H          2.7056208858       -1.9263478467        1.2347061838
 C          0.2629590298       -3.0367983624        4.1483037840
 H         -1.3112125030       -2.5909811253        2.6988939244
 H         -0.4545073325       -1.1839496407        3.2734855040
 C          1.6759907253       -2.5480593328        4.5127105042
 H          3.6188608033       -2.2720938406        3.5536950053
 H          2.7365331369       -3.6733536117        2.9969181425
 H         -0.4050016856       -2.9844072107        5.0189716092
 H          0.3045748439       -4.0976712414        3.8736442285
 H          1.6218870561       -1.5103895260        4.8638785722
 H          2.0835941611       -3.1230901234        5.3556290643
 C         -0.9316715886       -2.4945854960       -0.8337748087
 C         -1.6815152228       -3.6549436612       -0.1553795799
 C         -1.8532869574       -1.7612025857       -1.8122693149
 H         -0.1098631320       -2.9382070434       -1.4029289182
 C         -2.2593393005       -4.6284629635       -1.2031954704
 H         -2.4984216583       -3.2561465858        0.4505306028
 H         -1.0281309990       -4.1856780253        0.5476920680
 C         -2.4311199162       -2.7204816674       -2.8712334660
 H         -1.3290584167       -0.9177350809       -2.2795194478
 H         -2.6734811923       -1.3199995718       -1.2376416051
 C         -3.1742403995       -3.8910551060       -2.2000569074
 H         -2.7991382678       -5.4509857299       -0.7142697712
 H         -1.4357048974       -5.1034186357       -1.7496877996
 H         -3.0925200523       -2.1829861782       -3.5643784020
 H         -1.6151026038       -3.1136757110       -3.4892185785
 H         -4.0534740895       -3.5062813254       -1.6692546319
 H         -3.5681389111       -4.5859078138       -2.9545149552
 C          2.7558107873        2.8345680596        0.8826262123
 C          0.3203145657        2.8632598303       -1.2078869579
 C          3.3975194760        1.9391360305        1.9482086730
 H          2.8251332389        1.8995256202        2.8691615079
 H          3.5139529566        0.9192567543        1.5852353350
 H          4.3882610116        2.3103472862        2.2152555372
 C          2.3297159313        4.1767925488        1.4724009500
 H          3.1794850887        4.6825829609        1.9337344023
 H          1.9365808722        4.8362689426        0.6990151919
 H          1.5621839277        4.0631278781        2.2356228023
 C          3.8152705080        3.0862090907       -0.1934658836
 H          4.6549265514        3.6391713296        0.2294521954
 H          4.2218262555        2.1565182006       -0.5784579920
 H          3.4429826457        3.6765514218       -1.0236100409
 C         -0.4099678101        1.7886478811       -2.0066650946
 H          0.2931382234        1.1313550645       -2.5195079435
 H         -1.0315947592        1.1786156768       -1.3525549522
 H         -1.0497275615        2.2355518984       -2.7692563169
 C          1.2919717246        3.5963683915       -2.1259375681
 H          0.7657266802        3.9951372647       -2.9940962409
 H          1.7489877747        4.4447463903       -1.6190448249
 H          2.0677802605        2.9323741207       -2.4998218270
 C         -0.6760167862        3.8752712032       -0.6443481662
 H         -0.1841719077        4.5939704136        0.0104917561
 H         -1.1481311396        4.4396759512       -1.4496917165
 H         -1.4690872676        3.3842797099       -0.0818374214
 C          4.0950700577       -1.7897171255       -2.8815058510
 C          2.9201564704       -0.7375240379       -3.0883536854
 C          3.8097956661       -1.8747018323       -1.3189638704
 H          5.0832545948       -1.3851926014       -3.1184236493
 H          3.9242627086       -2.7355534052       -3.4034862815
 C          1.7554895438       -1.5160452605       -2.4188685586
 C          3.3339871247        0.3214148288       -2.0293893228
 H          2.7523444255       -0.3759970822       -4.1179139594
 C          2.2911004769       -2.2016416814       -1.3521379572
 C          3.8716847113       -0.3628332812       -0.9626945411
 H          4.4547226411       -2.5531655393       -0.7337819191
 H          0.7516148574       -1.6202754497       -2.8347369017
 H          3.3800516330        1.3942718635       -2.2147700162
 H          1.8056108996       -2.9717527879       -0.7494888434
 H          4.4285243047        0.0609179053       -0.1248557805
