103
 energy: -126.048714017721 gnorm: 0.000630711328 xtb: 6.6.1 (8d0f1dd)
C           -4.62895104533969       -0.47473528185589       -1.39225255157601
C           -5.12071625296786        0.76114211479804       -0.93404259905469
C           -4.33423607076452        1.78320163594086       -1.50607340833190
C           -3.34659457734660        1.17454903246590       -2.31101464943874
C           -3.52784789130673       -0.21706009055974       -2.23949801117337
H           -5.06020795707800       -1.43373472959814       -1.17915113473688
H           -5.95795596227847        0.90363687462268       -0.27970834673633
H           -4.50087679665305        2.83667024568497       -1.38072556261958
H           -2.61984894988323        1.67742573143316       -2.91921409087439
H           -2.95936308470192       -0.94298908387888       -2.78594303101490
Fe          -3.17338142538656        0.58117331349431       -0.34586026901963
C           -2.57664410397269        1.91574148130681        1.03935836049557
C           -1.46271002998720        1.34165029612949        0.37347879187371
C           -1.48601948589691       -0.06987010729706        0.61955134733955
C           -2.63700599981311       -0.32836729202792        1.42618734650875
C           -3.29842270275234        0.88422836074769        1.66912431815645
H           -2.85655557684948        2.95023030357222        1.06236731436216
H           -2.94579698035137       -1.27296913487845        1.82617097045257
H           -4.20111037749296        1.00348526020197        2.23310988984144
C           -0.57575374783279        2.05200174743772       -0.59675484003614
H           -0.54687081095638        1.41390216828261       -1.49400686975489
P           -0.16484732077398       -1.21294387409894        0.17569790318903
C           -1.23521870274225        3.37230852738185       -0.99075396000085
H           -0.82919803114442        3.76731812307519       -1.91426906830823
H           -2.28878165803459        3.17352861000930       -1.16224789751515
H           -1.15545944363129        4.12283669936160       -0.21319622923692
P            1.23121616622759        1.99130800019215       -0.03956009496670
Rh           1.83077112012716       -0.24661327762228       -0.61159667363301
C            0.16410739870139       -1.94500240496878        1.89386226468075
C           -0.66165670063158       -3.12605830225655        2.40192968444711
C            1.64565296047237       -2.27484611057137        2.09494553114065
H           -0.07125853354065       -1.09833167794868        2.54857547916395
C           -0.37441492816595       -3.33795449937163        3.89071028028293
H           -0.40734145949589       -4.03709046525268        1.85903198045371
H           -1.72735550190048       -2.94012113390521        2.28762434367797
C            1.94649194260426       -2.45298677374451        3.58049913426074
H            2.27647884326732       -1.47680614221238        1.67333752736192
H            1.88817891336548       -3.21004893868841        1.58832329983772
C            1.10719798127606       -3.59734329762595        4.14021901320655
H           -0.96388321158021       -4.18092673004787        4.25491590701010
H           -0.68544057527013       -2.45013207470268        4.44608908502390
H            3.00750613684907       -2.66598094644259        3.72179556147906
H            1.71459267982676       -1.53150028316012        4.11882371826067
H            1.40002669717733       -4.53217342532709        3.65714920294802
H            1.28866462315031       -3.70579129489382        5.20994679422110
C           -1.07094311282017       -2.46233218623472       -0.91979433177509
C           -0.31251458944755       -3.76900283431770       -1.16727613463164
C           -2.49166196596942       -2.79892824694579       -0.46803803021725
H           -1.14400913249125       -1.91532675057604       -1.87129883478734
C           -1.03329754786222       -4.63192785921298       -2.20388718070376
H           -0.23939346639178       -4.33082253810955       -0.23517884325401
H            0.69214095666693       -3.58294470338394       -1.53257718497781
C           -3.21019579316496       -3.66057434528124       -1.50639456163854
H           -3.05446046653717       -1.88127247728334       -0.30902254673972
H           -2.45985747478990       -3.36567094413086        0.45901394854183
C           -2.44944481466253       -4.95705133228109       -1.75049235413626
H           -0.46730174718760       -5.55180600052484       -2.36055193822110
H           -1.07176894899137       -4.09923417379663       -3.15719491317599
H           -4.21703978593271       -3.88253241709571       -1.14934534808665
H           -3.30400531102919       -3.11838984206890       -2.44785849784702
H           -2.41403747495859       -5.54304637677099       -0.82969631049096
H           -2.95723766150239       -5.55543135640013       -2.50759692208682
C            1.27596343420715        2.59908078076281        1.76471679872552
C            2.10625194964728        3.30975499006635       -1.12978839308600
C            0.91291641098046        1.39732284175653        2.63617235524295
H            1.04652096557187        1.64832959491248        3.68703862725135
H           -0.12370500572714        1.10862630203304        2.49071414863414
H            1.56546946534447        0.55764807437549        2.39906791903752
C            0.30606528624530        3.73628521231931        2.07176929114164
H           -0.72196607794560        3.40790028102706        1.96066580131132
H            0.44391616609912        4.04258176233738        3.10809584240177
H            0.47753305606637        4.60603297522853        1.44712212390081
C            2.69892716616766        3.01400813833266        2.13969441357790
H            2.99489759270327        3.93799600660459        1.65686366606761
H            2.75270309430431        3.17567244807416        3.21513529343846
H            3.41263196570686        2.23237514760860        1.88673188357084
C            1.77821941852405        2.88898179637110       -2.57381979467914
H            0.84360054060052        3.33004792404555       -2.90634506063936
H            2.55051817489659        3.23091837024586       -3.26064934511142
H            1.68436841229225        1.80372428585096       -2.67001288859101
C            3.62776030942120        3.26239262381255       -0.87476494358759
H            4.17799382145817        3.35461551280495       -1.80965547808811
H            3.94076980333125        4.09794408261885       -0.25495382968964
H            3.94359862414737        2.35411211797203       -0.37387038531412
C            1.70424489059173        4.77567689997027       -0.94370049015663
H            2.26219843526792        5.36430084695137       -1.67211844504824
H            0.65303333507744        4.96605905442721       -1.10958115041732
H            1.97270302139639        5.14449335502614        0.04197638003627
C            4.64514787378642       -1.85452497640486       -2.26272031236523
C            3.50276923122612       -0.96113084697370       -2.77381809473231
C            4.16193800895777       -1.79541095398728       -0.80421265198071
H            5.63024408043079       -1.41282247280809       -2.40845438455982
H            4.62622579718692       -2.86072962963010       -2.67984840621324
C            2.29236997147864       -1.67358523954513       -2.18783710589437
C            3.63134640084617        0.22305579353738       -1.82415014880987
H            3.47061008926963       -0.73252105539311       -3.83487815259647
C            2.70400236797330       -2.20111007758967       -0.97957776886781
C            4.02911242653105       -0.28811767110962       -0.60930204243206
H            4.73226902357347       -2.33716961703130       -0.05577678640441
H            1.44126030000858       -1.96351208596403       -2.78885178111904
H            3.76564282986745        1.22177409253982       -2.19126964848363
H            2.28364105881380       -3.03911907017877       -0.45114544616085
H            4.49788121421635        0.23643497624341        0.21284335328269
