  111
       -146.96202725
 C         -3.9629375800        2.7178564265        2.3885368915
 C         -3.1205588582        3.8931115694        2.2898420423
 C         -2.6657156537        4.0013287820        0.9184358999
 C         -3.2204842658        2.8887312593        0.1715505513
 C         -4.0175828969        2.0922211424        1.0828384034
 H         -4.4950972191        2.3840650849        3.2812087565
 H         -2.9101551008        4.6010104236        3.0937891734
 H         -2.0906130073        4.8305093702        0.5033864118
 H         -3.1454809341        2.7429583983       -0.9076459370
 H         -4.5923145308        1.2009524195        0.8260676257
 Fe        -2.0164705819        2.1783232055        1.7524411466
 C         -0.6163903753        2.0194580433        3.3054189206
 C          0.0220114804        1.5898344797        2.0587574164
 C         -0.7644709292        0.4748792733        1.5447764599
 C         -1.8583031733        0.2182646710        2.4628513807
 C         -1.7605083306        1.1650552349        3.5566075913
 H         -0.2137743931        2.7616477018        3.9966295114
 H         -2.5825162967       -0.5936318590        2.3735789948
 H         -2.4020841220        1.1947266160        4.4395759305
 C          1.4975918595        1.8063703418        1.7698564118
 H          1.7668969467        2.7807487794        2.1943427471
 P         -0.2570487009       -0.6152182933        0.1730887459
 C          2.2960047997        0.7319205146        2.4947988750
 H          2.2568721407       -0.2119028125        1.9530820214
 H          3.3396546660        1.0046630764        2.6456554797
 H          1.8794817115        0.5464519030        3.4869946074
 P          1.9297813482        1.9842224069       -0.0616476489
 Rh         1.1093338068        0.3003452881       -1.5163303148
 C          1.0404467902        3.5556373328       -0.6640663575
 C          3.8255346517        2.0300288398       -0.2233360043
 C          4.3562205069        3.0272195484        0.8033722811
 H          4.0712240328        2.7580441781        1.8185991833
 H          5.4457338515        3.0736939723        0.7680437989
 H          3.9754936990        4.0295865800        0.6074204105
 C          4.2890447009        2.4552738499       -1.6197114516
 H          3.7569380574        1.9196733334       -2.3991820594
 H          4.1651812888        3.5218407148       -1.7871056398
 H          5.3522601828        2.2488776531       -1.7486981296
 C          4.3603673553        0.6201111726        0.0469116778
 H          5.4302440142        0.5672442032       -0.1603009475
 H          4.2278427692        0.3119966534        1.0794455581
 H          3.8645285161       -0.1169583022       -0.5819695498
 C         -0.2868867516        3.0968721404       -1.2606283909
 H         -0.8049582054        2.4259429201       -0.5759973532
 H         -0.9358374827        3.9485887585       -1.4702265723
 H         -0.1361993401        2.5668698775       -2.2020285099
 C          1.8279828238        4.3207882754       -1.7213170558
 H          2.7237400043        4.7689748957       -1.2944437451
 H          2.1047316366        3.6776419521       -2.5545268811
 H          1.2283639795        5.1366982166       -2.1266057431
 C          0.8027521008        4.4703337989        0.5356443659
 H          0.3179246896        5.3966659907        0.2244024415
 H          0.1590697740        3.9977383634        1.2763450792
 H          1.7426727514        4.7384751352        1.0182097217
 C         -1.7713562659       -1.3643643396       -0.4430423210
 C         -1.9279355438       -2.7315686821       -0.4527215941
 C         -2.7705258878       -0.5425867235       -0.9099643153
 C         -3.0847833855       -3.3043722208       -0.9498310656
 H         -1.1421004846       -3.3615622803       -0.0723664933
 C         -3.9418459655       -1.0740250399       -1.4205373585
 H         -2.6316814028        0.5242881319       -0.8812368544
 C         -4.1130820395       -2.4710762183       -1.4297315800
 C          0.7823252510       -1.8940124183        0.9129243050
 C          0.3564815929       -2.4463511137        2.0995175134
 C          1.9690170021       -2.3045680368        0.3464750284
 C          1.1063707162       -3.4156339500        2.7424067605
 H         -0.5695596631       -2.1133859272        2.5369498109
 C          2.7516323675       -3.2661857882        0.9571292581
 H          2.3005250353       -1.8780969703       -0.5826459980
 C          2.3306531842       -3.8210450682        2.1796045286
 O         -5.3140964374       -3.0380560354       -1.9269750641
 O          3.1351147555       -4.7848847126        2.8390214971
 C          0.6472704974       -4.0103854682        4.0207186869
 H          1.1918053200       -4.9311367188        4.2341582031
 H          0.8072699241       -3.3216132667        4.8507979310
 H         -0.4151112537       -4.2534532293        3.9804062183
 C          4.0562500570       -4.2202861514        3.7494683061
 H          4.6313614578       -5.0249302516        4.2089520837
 H          4.7310015660       -3.5468995857        3.2204283317
 H          3.5197761282       -3.6693830888        4.5223223783
 C          4.0332470512       -3.6996654081        0.3503022068
 H          4.8157765114       -2.9599472575        0.5223198649
 H          4.3614382519       -4.6467062260        0.7806652398
 H          3.9293764814       -3.8406372114       -0.7261572552
 C         -3.2571510643       -4.7770695163       -0.9718755051
 H         -3.4952622888       -5.1565614863        0.0222565858
 H         -4.0673003023       -5.0594238229       -1.6455462444
 H         -2.3489757552       -5.2727713366       -1.3166960325
 C         -6.3139899841       -3.1932171300       -0.9410684264
 H         -5.9496458873       -3.8457887888       -0.1472816723
 H         -6.5755020490       -2.2200366968       -0.5251530768
 H         -7.1947543056       -3.6397121214       -1.4039478512
 C         -5.0156962431       -0.1970621507       -1.9470464437
 H         -4.5993439872        0.6653581793       -2.4688465423
 H         -5.6438138187       -0.7427013103       -2.6524577578
 H         -5.6535795463        0.1679217434       -1.1419055808
 C          1.3014128791       -1.2605982596       -4.8252547988
 C          1.8921870809       -1.6298061410       -3.3949941586
 C          0.5993184090        0.0474335166       -4.2522402091
 H          0.5907468218       -2.0013465328       -5.2026015516
 H          2.0738867077       -1.0452670653       -5.5689011812
 C          2.6047425583       -0.2887918562       -3.0585455636
 C          0.5815719873       -1.5953042421       -2.5606032201
 H          2.4999591190       -2.5490530325       -3.3308690613
 C          1.8268157298        0.7217402107       -3.5771004634
 C         -0.1947624851       -0.5846916047       -3.0760191129
 H          0.0251380279        0.6579855506       -4.9707795444
 H          3.6299294202       -0.1973399181       -2.6945662882
 H          0.2669328240       -2.3416153642       -1.8286795638
 H          2.0995978875        1.7734491680       -3.6812812183
 H         -1.2329888469       -0.3699830270       -2.8161785944
