  126
       -158.05731803
 C         -1.9460078237        1.3710486501       -3.6303683972
 C         -0.9941609664        0.1822234585       -3.3198116810
 C         -1.9502133520       -0.8160301324       -2.5296226063
 C         -3.2106545141       -0.2307958303       -2.4753135707
 C         -3.1878771495        1.1170650603       -3.1168167868
 H         -1.6714128964        2.2560930070       -4.2047246759
 H         -0.7192927690       -0.2837860183       -4.2901597097
 H         -1.7542473970       -1.8969754605       -2.4785429766
 H         -4.1286972239       -0.7452105236       -2.1863361642
 H         -4.0738263712        1.7216730508       -3.2998212214
 Fe        -1.6317515330        1.0512023639       -1.4971585247
 C          0.3274491491        0.6094273232       -2.5363407122
 C          0.3419995808        0.0245745904       -1.1061943081
 C         -0.0463589145        1.1298170992       -0.1738991067
 C          0.1387239501        2.3913653024       -0.9756476559
 C          0.4206053965        2.1269511333       -2.2708427103
 H          1.2408297639        0.2822272268       -3.0721811617
 H          0.1526829682        3.3834698736       -0.5307003241
 H          0.6144349293        2.8765926294       -3.0289969989
 C          0.7056160828       -1.3666963174       -0.6015974940
 P         -1.5704637152        0.6944275778        0.8080424958
 N          1.4890498552       -2.2559327359       -1.5288360595
 H         -0.4036924239       -1.8521756166       -0.4556040305
 C          1.3467254688       -1.3140866338        0.7675957409
 C          2.6156983788       -0.7856374821        0.9452143054
 C          0.6904992484       -1.8524343577        1.8709554502
 C          3.2101761762       -0.7973011743        2.1889609402
 C          1.2840107787       -1.8598815631        3.1145613596
 H         -0.2907762877       -2.2733820811        1.7499150901
 C          2.5458506857       -1.3316717531        3.2757048563
 H          4.2077644668       -0.4159115718        2.3176725973
 H          0.7645171212       -2.2845267628        3.9578705224
 H          3.0168917306       -1.3427485680        4.2448858588
 P          3.4416403496       -0.1477967178       -0.5198101913
 C          0.8515247090       -2.5944943949       -2.8214068180
 H          1.5451617804       -3.1677706103       -3.4333158684
 H         -0.0387585383       -3.1975972195       -2.6591319077
 H          0.5869808667       -1.7021651534       -3.3741218265
 C          1.9345642865       -3.4824703492       -0.8485463908
 H          1.0784186574       -4.0940723428       -0.5721286880
 H          2.5779902559       -4.0630669425       -1.5068510499
 H          2.4970233898       -3.2479443397        0.0512524985
 Rh        -2.1510111911       -1.4202639968       -0.1870297727
 C          5.1981626185       -0.6404632423       -0.1909039488
 C          5.2432896524       -2.1723228828       -0.0755551359
 C          6.1028888132       -0.1515224753       -1.3319399695
 H          5.5240458230       -0.1909141781        0.7518143871
 C          6.6855568519       -2.6934215298        0.0830901115
 H          4.6138618809       -2.5132816920        0.7577622848
 H          4.7924775059       -2.6020128365       -0.9789178077
 C          7.5462298114       -0.6777920967       -1.1863099192
 H          6.1057200724        0.9441048528       -1.3757653417
 H          5.6771062833       -0.4845287347       -2.2863430417
 C          7.5724851323       -2.2128662629       -1.0789116402
 H          7.0997267456       -2.3297313877        1.0312735773
 H          6.6983268011       -3.7895213701        0.1575340617
 H          8.0006094040       -0.2436963654       -0.2873647530
 H          8.1701483563       -0.3363362156       -2.0237997023
 H          8.6017834392       -2.5793042056       -0.9624939000
 H          7.2098834605       -2.6491188625       -2.0175661254
 C          3.4094449640        1.6718848291       -0.1318504065
 C          4.3340984100        2.1743246098        0.9878190822
 C          3.6413981848        2.4664598022       -1.4257265589
 H          2.3751546025        1.8394570526        0.1895436778
 C          4.1332690563        3.6840153614        1.2297282004
 H          4.1640587629        1.6130354799        1.9133011344
 H          5.3761324056        1.9889417885        0.7071469623
 C          3.4411046454        3.9784653216       -1.1970841261
 H          2.9894263585        2.0897912787       -2.2250582121
 H          4.6606673590        2.2904538188       -1.7837239447
 C          4.3542427185        4.4878766725       -0.0658958437
 H          3.1144485492        3.8598991368        1.5959943491
 H          4.7974390455        4.0418107975        2.0284819925
 H          2.3950746089        4.1728886118       -0.9339223259
 H          3.6187487749        4.5390139793       -2.1251121518
 H          4.1949605560        5.5606697281        0.1096969601
 H          5.4020540598        4.3947057830       -0.3760255517
 C         -2.9255821794        1.8162606113        0.1711267301
 C         -4.0678782682        1.9911893595        1.1911474992
 C         -2.6340830536        3.0609054993       -0.6734858344
 H         -3.1694963447        0.9391325000       -0.6297829222
 C         -5.3129593956        2.6315331640        0.5611527216
 H         -4.3128512738        1.0260386188        1.6521330458
 H         -3.7138955842        2.6266563493        2.0108194863
 C         -3.8913945952        3.8155366901       -1.1723885146
 H         -1.9554593294        2.7174719576       -1.6345752505
 H         -1.9950044059        3.7430118529       -0.0916539920
 C         -4.9621266136        3.9811424495       -0.0816437666
 H         -5.7136242279        1.9588281248       -0.2072322341
 H         -6.1162837462        2.7446525349        1.3023393313
 H         -4.3319883221        3.2791951241       -2.0174204674
 H         -3.6040786082        4.7952711998       -1.5775914955
 H         -5.8619967379        4.4652426454       -0.4862165867
 H         -4.5867005333        4.6627547585        0.6915638651
 C         -1.0985617115        1.4442571275        2.4840597995
 C         -1.6335385982        0.5586418982        3.6186985201
 C          0.4185498404        1.6596746858        2.6043373136
 H         -1.5909280283        2.4231210085        2.5210404165
 C         -1.2240883460        1.0907890919        5.0065842365
 H         -1.2507731932       -0.4593376731        3.4817245943
 H         -2.7260977910        0.4787201534        3.5484417220
 C          0.8245250122        2.1849632491        3.9942827476
 H          0.7628555036        2.3474363600        1.8212329766
 H          0.9248262670        0.7111903771        2.4039448708
 C          0.3021060165        1.2609774093        5.1083132659
 H         -1.5953238339        0.4290077472        5.8011771361
 H         -1.7095387333        2.0586585648        5.1809689179
 H          1.9154681916        2.2976644841        4.0623673827
 H          0.4157729397        3.1928144502        4.1353878869
 H          0.7834276751        0.2796505000        5.0220956392
 H          0.5878606965        1.6420999294        6.0984167957
 C         -4.3903941094       -4.0633421452        1.0471175141
 C         -4.3660154440       -3.1539918263       -0.2584844970
 C         -3.0646532713       -3.3828558315        1.6050407599
 H         -4.2712804254       -5.1293788544        0.8329248910
 H         -5.2652695429       -3.8870798749        1.6795882894
 C         -4.2807219240       -1.7514207005        0.4109656684
 C         -2.9193056262       -3.4559808550       -0.7467603487
 H         -5.1808363967       -3.3099743756       -0.9861592985
 C         -3.4995614712       -1.8914799582        1.5316756351
 C         -2.1358392035       -3.5915391494        0.3732543741
 H         -2.6922285138       -3.7460694597        2.5783400019
 H         -4.8482852214       -0.8624998773        0.1256106905
 H         -2.6291239423       -3.7156582538       -1.7672830883
 H         -3.3342957954       -1.1354079554        2.2995637060
 H         -1.1105387506       -3.9675118364        0.3942286711
