126
 energy: -158.332612490359 gnorm: 0.000345369917 xtb: 6.6.0 (8843059)
C           -4.04056952142143       -0.01366886326651       -2.27803739288982
C           -3.76476867772687        1.40700597490507       -2.22326956816183
C           -2.39076265305240        1.43750816160730       -2.71554189159086
C           -2.16724426586957        0.30225139892066       -3.44091160674453
C           -3.15448845599567       -0.60720893829222       -3.14530807762162
H           -4.82307428622588       -0.45226803628257       -1.72076581057677
H           -4.46809343570980        2.03581105298542       -2.75326811519344
H           -1.92331926723665        2.38184692921008       -2.78715991134073
H           -1.43012328087865        0.04891202573434       -4.14320816487539
H           -3.02425215038623       -1.59742127358453       -3.45892949435531
Fe          -2.32706533388514       -0.04843701204763       -1.52247489469941
C           -3.52594108398894        1.72063711864223       -0.79398559661656
C           -2.08455179937796        1.52710514876449       -0.59566725732242
C           -1.87105840485458        0.40871893323627        0.19986427374706
C           -3.16040932570576       -0.01813297787174        0.61491096616017
C           -4.10292898163488        0.66600938092610        0.01871268086749
H           -3.91650255196985        2.69151662232338       -0.51990520777654
H           -3.35212135363079       -0.74604447977112        1.36817505081616
H           -5.15365208994887        0.51106013152840        0.10256819134793
C           -1.00850496112842        2.52231655460797       -0.66013873260080
P           -0.47385085814804       -0.59801771388668       -0.16631160230008
N           -1.45703597609279        3.73695005893848       -1.34293136957251
H           -0.16028930013223        2.08137425009868       -1.24849138569133
C           -0.52918723787971        2.73952070425262        0.77315616847067
C            0.78326521308549        3.06525904133762        1.12075478897014
C           -1.48865224659550        2.59930021917811        1.77599665279202
C            1.09807035641268        3.20368750265507        2.47163926645917
C           -1.16868701902112        2.78941169944798        3.10393775572491
H           -2.48892001094571        2.29939915874059        1.49986237230337
C            0.13798528472221        3.08374292841954        3.45541423699901
H            2.11594281794566        3.40046340875611        2.76625525800419
H           -1.92853122389696        2.68803080693016        3.86275174061453
H            0.41012303845942        3.21133450070905        4.49192367851280
P            2.05228580783198        3.27396642642530       -0.21311861095497
C           -2.13339841227353        4.69112994641562       -0.48417254756937
H           -1.43138436126206        5.29646572339624        0.10375585508002
H           -2.72128347202231        5.35754663713200       -1.11386919854713
H           -2.79384959934681        4.18046795195554        0.20585666907792
C           -0.46367626945789        4.42253834989463       -2.13788583436957
H           -0.97560754816186        5.15191877651116       -2.76586675079097
H            0.27275644177248        4.95923124330778       -1.52717421619384
H            0.05734628501010        3.72084235161305       -2.78282144525435
Rh           0.03498556383722        0.60122273928326       -2.01775325546534
C            3.47193364219902        2.29184741669672        0.53436877091908
C            3.02338704923386        0.83714047601154        0.67100186690376
C            4.68846456911873        2.36659983793545       -0.38884860679522
H            3.74782645835540        2.67680688051168        1.52028707666515
C            4.16046063512959       -0.02855417272947        1.20646139049897
H            2.15944535532023        0.77954550191162        1.34058918907067
H            2.70822941086003        0.46526542299170       -0.30930522486461
C            5.82826078596796        1.50253779268662        0.14331135262432
H            5.03353014844597        3.39738652781710       -0.48367999403861
H            4.41066022464024        2.02106315975104       -1.38853271398478
C            5.37770645299738        0.05354474750039        0.29101428791502
H            4.43622816111675        0.31751287759292        2.20526795183449
H            3.83888146184211       -1.06879147944097        1.29513214703737
H            6.14649002898460        1.88265428284436        1.11685687698385
H            6.68353299799595        1.56210288258971       -0.53251216032032
H            6.19023768577630       -0.55019770038384        0.69791844159325
H            5.12347890515501       -0.35247438899063       -0.69157829853635
C            2.55021136266460        5.08291029067604        0.08449351184738
C            3.51205195652438        5.41291721309560        1.22300006072445
C            3.11184903089257        5.63311102177518       -1.23233113166415
H            1.59915288773541        5.59531591141249        0.29121247029725
C            3.71729088808481        6.92549725741089        1.31090117140135
H            3.11932724935334        5.06392562960683        2.17802166744530
H            4.47920566989210        4.93717182841547        1.05172818748281
C            3.32209331293183        7.14163532039380       -1.14748001089271
H            2.43326177363541        5.40610162146338       -2.05992244219643
H            4.06776535045787        5.15270624667439       -1.45240125363347
C            4.26642351507256        7.47925158658955        0.00077165579117
H            2.76335091947882        7.40822131984720        1.53762386504152
H            4.40604713342385        7.14958461872687        2.12779657420842
H            2.36019546423229        7.63403743677498       -0.98380942637854
H            3.72996421420064        7.51050092123271       -2.09044749578069
H            4.39055514554595        8.56049317498796        0.07663826068552
H            5.24890144517877        7.04359508374205       -0.19609234393787
C           -1.38521864284861       -1.77521292899059       -1.25640879789606
C           -0.86114083773907       -3.15553396905723       -1.53734486432614
C           -2.78381473522879       -1.82291921747824       -0.78342570934009
H           -1.53789639778701       -1.22352036410445       -2.19096988390809
C           -1.77760247138387       -3.74213162220147       -2.60311987361543
H            0.17189121598537       -3.12758070885787       -1.87781007445972
H           -0.90679742696821       -3.77213198829988       -0.63964309486202
C           -3.75854984580032       -2.70146312613541       -1.49941896495294
H           -3.34288978419939       -0.88112709898973       -0.90011028296841
H           -2.76139923435671       -2.04362204744371        0.26052135544898
C           -3.14616561353635       -4.00915707992692       -1.99172827213049
H           -1.86868741292852       -3.00202996117374       -3.40415561179324
H           -1.36720934894219       -4.66151893908185       -3.01786300679632
H           -4.17779492618243       -2.14234335002336       -2.31464330233188
H           -4.58142801246195       -2.90452626841650       -0.81114499322236
H           -3.80675621035265       -4.47569002302790       -2.72134112414762
H           -3.02532071446722       -4.70658263894541       -1.16265977418940
C           -0.33591230426796       -1.56588526989009        1.41650081124622
C            0.94817715674726       -2.38253595383137        1.49451214442254
C           -0.42663630018810       -0.58640176955233        2.58010495906380
H           -1.19028305039412       -2.24908078120710        1.45984289196791
C            1.02795969144410       -3.12352781920292        2.82778044697414
H            1.80204050719111       -1.70949921040532        1.40833400653334
H            0.99490108897158       -3.09480219530306        0.66823686530368
C           -0.34557953366363       -1.32517340690230        3.91160326049968
H           -1.35656762348054       -0.02049086770913        2.50628725262508
H            0.39312026357774        0.13281142246787        2.51527055902450
C            0.94474964675013       -2.13707976304575        3.98939903736814
H            1.96043494446274       -3.68691490760452        2.88400947527588
H            0.20378333752630       -3.83669012816858        2.89802463305012
H           -0.38699038878735       -0.61017863221384        4.73410127861065
H           -1.20113230865169       -1.99688397068482        4.00930196867696
H            1.80048587604868       -1.45972100859695        3.95052314154410
H            0.98815700081557       -2.67644842123916        4.93609829259871
C            2.26540922293435       -0.09839597995119       -4.69549863948604
C            0.73886647486623        0.00562035868302       -4.60423246315295
C            2.47901062920610        0.23072105975552       -3.21523493035571
H            2.70477987343745        0.63988095268903       -5.36565705079736
H            2.61034658884612       -1.09550495794707       -4.96871949748683
C            0.42853498751137       -0.87527615817425       -3.39823499249686
C            0.54281195048233        1.35529323426950       -3.91973585867401
H            0.18235202242425       -0.18249873583853       -5.51942640445591
C            1.53175674470926       -0.74406478435982       -2.53685077697691
C            1.63563908431358        1.48260830999003       -3.05600052150249
H            3.49951981139767        0.26786805639736       -2.84839236167272
H           -0.24798723047787       -1.70919761050251       -3.48016032627728
H           -0.03130480197308        2.14960443339648       -4.37282393961572
H            1.85675866558010       -1.45838490206748       -1.79534570359325
H            2.04621468612101        2.39971236698415       -2.66568596357310
