  97
       -151.50813764
 C          3.6712877811        2.1974250988       -1.8404588655
 C          3.4073260429        2.7605487983       -3.1484839768
 C          2.5788386150        3.9363798523       -2.9735298955
 C          2.3391367784        4.1057113832       -1.5546413691
 C          3.0143780309        3.0303650289       -0.8533120688
 H          4.3196857649        1.3440589504       -1.6339700960
 H          3.8170648314        2.4004019116       -4.0940282557
 H          2.2559900789        4.6157924484       -3.7646815412
 H          1.8349020813        4.9567570438       -1.0942221981
 H          3.1250392462        2.9432588178        0.2291057298
 Fe         1.5859198257        2.2491816800       -2.1934944425
 C         -0.0919973839        2.0531633517       -3.4378025353
 C         -0.4717772315        1.6547067831       -2.0792302728
 C          0.4099787236        0.5546045716       -1.7029762271
 C          1.3015692712        0.2742951397       -2.8135983892
 C          0.9856172376        1.1945956540       -3.8884273166
 H         -0.6322895022        2.7689892157       -4.0592731249
 H          2.0266708470       -0.5405938760       -2.8538110460
 H          1.4344221172        1.1966650552       -4.8838409733
 C         -1.8706483484        1.8630858092       -1.5205199681
 H         -2.2352384202        2.8165232492       -1.9191845498
 P          0.2166016164       -0.5021171973       -0.2277554598
 C         -2.7738988734        0.7562308040       -2.0482542544
 H         -2.6144751124       -0.1686350351       -1.4969066189
 H         -3.8322165761        1.0088370444       -2.0051094662
 H         -2.5525118663        0.5444639052       -3.0960739719
 P         -1.9454825986        2.1061308292        0.3551572784
 Rh        -0.7583526221        0.5063955666        1.6597897734
 C         -1.0513755117        3.7544830577        0.6978562879
 C         -3.7794316379        2.0631440665        0.8823859957
 C         -4.5481769235        3.0038497363       -0.0437857539
 H         -4.4349629543        2.7310851670       -1.0906590140
 H         -5.6142956788        2.9863471653        0.1867003491
 H         -4.2031154991        4.0313034408        0.0681319788
 C         -4.0027056158        2.5035131725        2.3314866419
 H         -3.8014122111        3.5597826706        2.4806369782
 H         -5.0432961517        2.3480754078        2.6180596969
 H         -3.3934375798        1.9304581821        3.0219584404
 C         -4.2813969525        0.6199571656        0.7524385693
 H         -4.3509695603        0.2886243768       -0.2787288230
 H         -3.6277553932       -0.0728164380        1.2799987071
 H         -5.2809863519        0.5197299496        1.1775228342
 C         -1.0833014762        4.6072970480       -0.5697694600
 H         -2.1073921758        4.8105467057       -0.8821283222
 H         -0.5960636937        5.5681985287       -0.4003301737
 H         -0.5612972374        4.1191571839       -1.3914637862
 C          0.3849692554        3.3850785574        1.0529549726
 H          0.4389808861        2.8952788256        2.0255960883
 H          0.7977215623        2.7055173080        0.3076786879
 H          1.0165147828        4.2732487963        1.1026535400
 C         -1.6677805950        4.5509662557        1.8430446112
 H         -2.6596591215        4.9143028002        1.5800025248
 H         -1.7272698754        3.9593990593        2.7537853798
 H         -1.0593460231        5.4274865241        2.0675995919
 C          1.8207554457       -1.2586207799        0.0540621443
 C          2.8978383900       -0.4316635238        0.2684273694
 C          1.9786892503       -2.6258531009        0.0408758199
 C          4.1471140226       -0.9757318344        0.4909564684
 H          2.7558158459        0.6360988909        0.2532413376
 C          3.2286624525       -3.1709698534        0.2616274928
 H          1.1283198842       -3.2612083769       -0.1445341340
 C          4.3118379890       -2.3449676791        0.4861676382
 H          5.0052136419       -0.3494815531        0.6688345705
 H          3.3798126153       -4.2378685722        0.2586888502
 C         -0.9889252490       -1.7768605953       -0.6446486843
 C         -1.0414222849       -2.2149627239       -1.9488238306
 C         -1.8750792830       -2.2689674530        0.2875159442
 C         -2.0050578096       -3.1277976861       -2.3311965340
 H         -0.3453744907       -1.8205789890       -2.6707823311
 C         -2.8388692670       -3.1796804720       -0.0933846361
 H         -1.8261369156       -1.9347088662        1.3088375492
 C         -2.9098807939       -3.6022469308       -1.4040951511
 H         -2.0749352317       -3.4715112746       -3.3498382771
 H         -3.5512403613       -3.5667374949        0.6159455582
 C         -4.0358262448       -4.5223386825       -1.8326726506
 F         -5.1356195061       -3.7675618874       -2.0330578355
 F         -3.6853405747       -5.1491333036       -2.9742210473
 F         -4.2607845858       -5.4218676504       -0.8532164899
 C          5.6852267345       -2.9271236799        0.7571250074
 F          6.6017035492       -2.1954306858        0.0902259319
 F          5.9168141588       -2.8649334666        2.0844148075
 F          5.7146656272       -4.2083935186        0.3368345630
 C         -0.0513912593       -0.5831900589        5.0829084906
 C          0.3117728754        0.7089991081        4.2292696412
 C         -0.8453076901       -1.2253830101        3.8638499276
 H         -0.6870075688       -0.3664719235        5.9460045547
 H          0.8260691935       -1.1645575553        5.3800055017
 C          0.9525714204        0.0255269328        2.9892626389
 C         -1.1143096900        1.1142241209        3.7588395414
 H          0.9111922006        1.4846982573        4.7371447535
 C          0.2540061654       -1.1389233594        2.7700047781
 C         -1.8117922830       -0.0519004746        3.5370577267
 H         -1.3004140250       -2.2161682358        4.0375905690
 H          1.8784740575        0.3275163755        2.4956243216
 H         -1.5227809202        2.1241211733        3.8121128173
 H          0.5361746873       -1.9383110345        2.0824873609
 H         -2.8876029568       -0.1485945642        3.3766238648
