97
 energy: -151.560359646134 gnorm: 0.000509413556 xtb: 6.6.1 (8d0f1dd)
C           -3.34281398998226       -0.86700989458466       -1.44717390714081
C           -4.22031485261698       -1.28730382143702       -0.42195829150464
C           -4.98821796218752       -0.17428878072425       -0.02478580304086
C           -4.57811031172815        0.93558189034736       -0.79478618296570
C           -3.56798602019467        0.50125763726041       -1.67950962450883
H           -2.66670663336495       -1.48164917513780       -2.00729596138169
H           -4.33187312223367       -2.28546420332461       -0.04720754004326
H           -5.75684876792315       -0.17297142414413        0.72385391149110
H           -4.99333095259387        1.92448106772136       -0.74127908939770
H           -3.09635109771305        1.08592779847072       -2.44581558858314
Fe          -3.01135681677794        0.21286548440499        0.30823264886848
C           -2.39429843807851        1.83673531505894        1.36552812116634
C           -1.29649933898151        1.20429357358819        0.72804761439274
C           -1.22425710274702       -0.13067228613260        1.24094430110946
C           -2.30173941554800       -0.31040475905425        2.15501055503365
C           -3.00705571330280        0.90363005574801        2.23041077448357
H           -2.73057648496331        2.84629928723176        1.23042060449089
H           -2.51609167200459       -1.19829513431304        2.71829997373829
H           -3.86890630029285        1.09077264662368        2.83926089092278
C           -0.52755953506537        1.69505374153324       -0.46148187902313
H           -0.58816174281198        0.87782983480240       -1.19712059148156
P            0.13255807281796       -1.22106252794416        0.86472055748820
C           -1.28025979278541        2.89008566202889       -1.04985752105140
H           -0.98474290830169        3.09958990236379       -2.07122248111766
H           -2.33620835542384        2.62947288056142       -1.06364059082495
H           -1.16812802327997        3.78836088117261       -0.45416804522405
P            1.35015977712192        1.75405153886201       -0.15841551154954
Rh           2.16964196475693       -0.41575487351281        0.25588566209817
C            2.02241481189243        2.70048531118714       -1.67522863558694
C            1.58927364683976        2.75926984750923        1.44203181177315
C            0.60012800319226        3.90821360263601        1.61074696052752
H           -0.41909223532451        3.54174981796478        1.67617255627743
H            0.82231762768621        4.43002486712199        2.54074947854163
H            0.67925566072385        4.62952281757387        0.80338415889473
C            3.01337008207534        3.30370003297820        1.54426177537452
H            3.16337181640125        3.72580389884586        2.53701054688052
H            3.74582851938041        2.51122131673451        1.40977294873093
H            3.19533353042344        4.09719399251489        0.82592926412014
C            1.39257277690059        1.75506666807259        2.58382619558471
H            1.63649063615484        2.22322955564698        3.53582791917058
H            0.35910808993211        1.42059031537560        2.62891878446378
H            2.05325591533535        0.88643052960936        2.45196385443658
C            1.50208800509179        1.90781298744939       -2.88138830512877
H            0.44935573791923        2.08336176522368       -3.07510215609907
H            2.05350249194588        2.19044987688773       -3.77599969563806
H            1.64813904106931        0.83684609313359       -2.71743765223334
C            3.55334814760139        2.65277359864980       -1.73659056676658
H            4.01931256568522        3.09402411648137       -0.86308628879904
H            3.92006560018369        1.64240317367723       -1.86018762938073
H            3.88065933055259        3.22663652958370       -2.60253916024394
C            1.63682986585339        4.17778442438517       -1.76102746866783
H            1.89681657652765        4.54560285791882       -2.75277350963531
H            0.58362399103477        4.36451553447998       -1.60860453375812
H            2.19982007978847        4.76501886608944       -1.04022473070547
C           -0.56143492845046       -2.32924152735632       -0.40312126022291
C           -1.67592345207458       -3.11133111540929       -0.12432231492009
C            0.04165991115019       -2.39001331043707       -1.65325197420391
C           -2.16313379467396       -3.98521255853819       -1.07815490432343
H           -2.15326074599162       -3.02888285123022        0.83945607521101
C           -0.45333576954174       -3.24333955760430       -2.62159810439554
H            0.90682849997676       -1.76389855091595       -1.85583239119187
C           -1.54801790463524       -4.04629172220192       -2.32217032894899
H           -3.01523803775339       -4.61241512781661       -0.86861414504795
H            0.00050489398974       -3.29894217455725       -3.59922062491369
C            0.16477237404793       -2.30348925084703        2.33876727760250
C            0.27940024832738       -3.68807920576429        2.24648878335099
C            0.18322181248498       -1.70366175881590        3.59616408722056
C            0.38849453118991       -4.45948921329789        3.38801970443952
H            0.26905999334516       -4.17501866123549        1.28277754500885
C            0.29109431976372       -2.46710029421801        4.74319457091511
H            0.10524793918039       -0.63013865291265        3.67966415650211
C            0.39553539270817       -3.84653668413565        4.63449060408964
H            0.47129843364601       -5.53311490054277        3.31735882255456
H            0.29793073645928       -1.99797061625742        5.71467721473644
C            0.51483143703680       -4.71617217263771        5.85813729847961
F            1.58882785259121       -5.51948565091973        5.78788442486392
F            0.62786413348151       -4.01345442132767        6.98905319093602
F           -0.55291272639324       -5.51785736339910        5.99996351370046
C           -2.05025838459105       -4.98240407789010       -3.39049130481494
F           -1.11659086066126       -5.88872638108520       -3.72555612081961
F           -3.13985030049799       -5.66002550879258       -3.02412449438961
F           -2.35768503825073       -4.31939019050038       -4.51726457974602
C            5.29485407014523       -2.24138798054384        0.21190092519942
C            4.06782997077207       -2.24586294074718       -0.71574120830531
C            4.69993663138678       -1.17493545842517        1.14748164293733
H            6.20810221221214       -1.91539262825828       -0.28435049270645
H            5.46266524311883       -3.19819657147618        0.70436144102018
C            2.94949051935571       -2.45522680594550        0.29994083962822
C            3.93745954852803       -0.75535522718254       -1.00850609267581
H            4.07993919395241       -2.91202766721641       -1.57304090405553
C            3.34254656256665       -1.80085438181453        1.44782686517351
C            4.32835469533047       -0.09054311593823        0.13416912218515
H            5.29160582766582       -0.86033730712933        2.00183152586429
H            2.23007322475859       -3.25700054850744        0.22345324538041
H            3.87856823189565       -0.37958423007936       -2.02042382056742
H            2.96690723051693       -1.95760594830729        2.45078742082840
H            4.69499204326188        0.92125787701895        0.20706558983553
