97
 energy: -126.217532734525 gnorm: 0.000333503273 xtb: 6.6.1 (8d0f1dd)
C           -4.93211790639785        0.07716597738998       -0.74480555572624
C           -4.94682568663662        1.45516812542262       -0.45447296475434
C           -4.05358883481290        2.09766094063531       -1.34019814186296
C           -3.48942000889559        1.11523623824159       -2.17770327055879
C           -4.04973803581747       -0.12888773779442       -1.82187546999666
H           -5.52263445874865       -0.67533185359455       -0.25895334832352
H           -5.54387757598111        1.93691992400005        0.29456135640815
H           -3.87381594708792        3.15399488927588       -1.38554792943483
H           -2.81687666744789        1.28807678555272       -2.99723928411106
H           -3.89107032661045       -1.06015121638257       -2.32948047410356
Fe          -3.06796358390710        0.78010375204229       -0.15899455262326
C           -2.24393528225595        2.14028904413417        1.06206865506897
C           -1.23367267719557        1.41070944906255        0.39627122766430
C           -1.34324191947135        0.03418360056659        0.77689901911634
C           -2.48780785574787       -0.05455109129816        1.62497558388942
C           -3.01806415227529        1.23149738651122        1.80899916319944
H           -2.42776606948515        3.19376617583493        1.00762002662190
H           -2.88867801595173       -0.93616656657199        2.08219873338206
H           -3.87175177559542        1.47429415372516        2.40857606363905
C           -0.30637546943776        1.89928175545773       -0.65612104149474
H           -0.34193210959400        1.14805421653958       -1.45409699152547
P           -0.10589918517848       -1.24052769200875        0.43364168647667
C           -0.74617157757121        3.22210037072046       -1.27834562937275
H            0.06230794466937        3.70146712669506       -1.82326264103749
H           -1.56186506580748        3.01658895092963       -1.96610574303094
H           -1.11974238726132        3.92828379911578       -0.54616863242155
P            1.44817813098447        1.69044315149864       -0.00820206634967
Rh           1.99631964859338       -0.52289552320774       -0.40239964214510
C            1.42415096156692        2.48864725585705        1.64265147110777
C            1.20819486963164        3.76172745222427        4.11953940092181
C            2.03533637131357        2.66750798423679        3.96112996292578
C            2.16628853570659        2.02416561225409        2.73429183414674
C            0.62097736470304        3.61688695727431        1.80726871303607
C            0.50828986307765        4.24907914898652        3.02863366509814
H            1.12233391081056        4.24093841030994        5.08220185798782
H            2.60453930363449        2.30138130326014        4.80282615009269
H            0.10202647750175        4.02254837253903        0.95791962580354
H           -0.11957203877174        5.12100796085123        3.12852088546119
C            2.38866965285662        2.89374243813497       -1.01634840858756
C            3.84330536519900        4.76544410000726       -2.48130989558985
C            3.84793761092698        4.81804490041488       -1.09820758812936
C            3.12731545297351        3.88640072109945       -0.37541617053490
C            2.40947219024884        2.81656282334685       -2.41788921842081
C            3.13509056213248        3.76751880923989       -3.12574001157660
H            4.39649056950859        5.49122535126750       -3.05656750248274
H            4.40972634568951        5.58096689466438       -0.58231219590385
H            3.13484828458744        3.93237260458934        0.70357008700989
H            3.14505802016872        3.71835864921827       -4.20497577599441
C           -1.11194484784927       -2.34514130552086       -0.73637240262160
C           -2.55304778846841       -2.57786164955580       -0.29190526821012
H           -2.60808790424464       -3.22332112652170        0.57619811237979
H           -3.05907270416889       -1.63854080023342       -0.08349950877433
H           -3.08785401892485       -3.07536978874228       -1.09822539055264
C           -1.12643885996217       -1.51060078202201       -2.01997468925975
H           -1.66912508826004       -0.58341407530347       -1.83590715131845
H           -0.11373770535609       -1.26785637610925       -2.34321974161184
H           -1.61884940512246       -2.05058624809993       -2.82493959107426
C           -0.44444042483210       -3.69602981144662       -0.98155794959330
H            0.55702957968854       -3.58707386439029       -1.38148917573511
H           -0.39073763332585       -4.28372807105459       -0.06902698427446
H           -1.03174085944612       -4.26229907300631       -1.70274068311788
C            0.11192823277820       -2.01445367481430        2.17368036945170
C           -0.92985318944327       -3.04195990319185        2.60859812334897
H           -1.93256271105952       -2.63093919997671        2.63381587248719
H           -0.92262569155617       -3.92215091345963        1.97191011350456
H           -0.68702478284773       -3.36785931818973        3.61964784483479
C            1.47908968864437       -2.70207492425110        2.20575718003501
H            1.47261866431077       -3.60218751999684        1.59562761518056
H            2.26668981168107       -2.03241266095406        1.85362960342240
H            1.71987758819443       -2.99940247997329        3.22503649271596
C            0.11952952737718       -0.85326042622865        3.17428835329377
H            0.65361724464640        0.00707732854984        2.77744394637427
H           -0.88838712994493       -0.53373297503722        3.42072189740673
H            0.60469325038007       -1.16365488459833        4.09747362175123
C            3.14257875499111        0.89669721029327        2.62324291867838
H            2.83184310679958        0.18908169999240        1.84818055165926
H            4.12481318763378        1.29486136974647        2.36447821051723
H            3.23536639162924        0.37004864847936        3.57012519224234
C            1.69002644065813        1.74900310773583       -3.18829966151453
H            1.56193067799945        0.84144667686517       -2.58940595085235
H            0.70808649614282        2.09805989202524       -3.50454295839232
H            2.25116113921086        1.49878145582057       -4.08653322573779
C            4.91095198873518       -2.07789750188473       -1.95827006918895
C            3.77559921405254       -1.19223517427229       -2.50162607162823
C            4.36176392291747       -2.05595541462419       -0.52072975317232
H            5.89430672072978       -1.61828140739643       -2.05038178425978
H            4.92665249525384       -3.07526869093849       -2.39668626192778
C            2.56310688449573       -1.95785941551765       -1.98929184955749
C            3.84569968004275       -0.02209467637488       -1.52494790023061
H            3.78559957166224       -0.94668808306523       -3.55921064518614
C            2.91856365465101       -2.49041473955621       -0.76973194628328
C            4.21370483825592       -0.55407296944638       -0.31284244209551
H            4.90853259769285       -2.60267702970007        0.24178292803183
H            1.77527400273215       -2.28737831787260       -2.65050900459662
H            3.97557005717323        1.00259424071846       -1.83447186608435
H            2.48719690314591       -3.35367996540469       -0.29133105535594
H            4.66994540796092       -0.02379795377003        0.50875953189394
